geometry optimzed in LAMMPS
_audit_creation_date              2020-12-01 
_audit_creation_method            'lammps2cif' 
_symmetry_space_group_name_H-M    'P1' 
_symmetry_Int_Tables_number       1 
_symmetry_cell_setting            triclinic 
loop_ 
_symmetry_equiv_pos_as_xyz 
  x,y,z 
_cell_length_a                    37.13440564 
_cell_length_b                    37.16129306856257 
_cell_length_c                    37.01913151656726 
_cell_angle_alpha                 90.09646593743658 
_cell_angle_beta                  90.09603771652236 
_cell_angle_gamma                 90.06258366754464 
loop_ 
_atom_site_label 
_atom_site_type_symbol 
_atom_site_fract_x 
_atom_site_fract_y 
_atom_site_fract_z 
_atom_site_charge 
C1          C  0.60919156  0.70506408  0.44539061     0.79500
N2          N  0.59124150  0.67562864  0.45744655    -0.78900
C3          C  0.59663508  0.66359636  0.49177411     0.81900
N4          N  0.62066774  0.68101308  0.51363907    -0.78800
C5          C  0.63929730  0.71011248  0.50129647     0.82000
N6          N  0.63296736  0.72204248  0.46731847    -0.80500
C7          C  0.66102909  0.52129512  0.57319816     0.79500
N8          N  0.67642277  0.54079411  0.59994111    -0.78900
C9          C  0.66285000  0.57304906  0.61007379     0.81900
N10         N  0.63356362  0.58638615  0.59232807    -0.78800
C11         C  0.61763413  0.56689965  0.56534883     0.82000
N12         N  0.63122474  0.53403340  0.55628350    -0.80500
C13         C  0.47295647  0.65433393  0.62795495     0.79500
N14         N  0.48583156  0.63550435  0.59922769    -0.78900
C15         C  0.51961394  0.64250291  0.58646602     0.81900
N16         N  0.53979405  0.66885503  0.60221288    -0.78800
C17         C  0.52645684  0.68823384  0.63038899     0.82000
N18         N  0.49347318  0.68017433  0.64333210    -0.80500
C19         C  0.53464062  0.58077913  0.50404238     0.85700
C20         C  0.56485923  0.56028558  0.52367276    -0.54500
C21         C  0.58603732  0.58131873  0.54544506     0.08600
C22         C  0.57489078  0.62127059  0.54561653     0.19600
C23         C  0.51382465  0.59999792  0.53432901    -0.55200
C24         C  0.53463729  0.62131290  0.55603543     0.08700
C25         C  0.55433024  0.61128199  0.48388555    -0.54800
C26         C  0.57555611  0.63249445  0.50555255     0.09300
H27         H  0.56916698  0.53157782  0.52029393     0.13800
H28         H  0.59196830  0.63839241  0.56332105    -0.00400
H29         H  0.48494512  0.59714545  0.53794433     0.14100
H30         H  0.55165883  0.61551419  0.45498960     0.13900
In31       In  0.77400894  0.83048901  0.63942109     1.36900
C32         C  0.79433326  0.77904649  0.68413774     0.76800
O33         O  0.75801373  0.85386619  0.69341338    -0.61600
O34         O  0.71737120  0.84513755  0.65406493    -0.52500
C35         C  0.81870019  0.87955334  0.61095952     0.69500
O36         O  0.82993755  0.85122964  0.62560168    -0.47400
C37         C  0.73725415  0.79386355  0.58977122     0.74200
O38         O  0.79417447  0.81171142  0.69330905    -0.59300
O39         O  0.72612109  0.82264389  0.60388837    -0.49400
O40         O  0.78894415  0.77320290  0.65100673    -0.55700
C41         C  0.72483004  0.85249264  0.68638587     0.84400
O42         O  0.78503806  0.88183531  0.60963654    -0.57600
O43         O  0.76850065  0.78453788  0.59958763    -0.60900
In44       In  0.65367241  0.82156293  0.76251292     1.36900
C45         C  0.69741434  0.85090110  0.71457008     0.76800
O46         O  0.70739236  0.80633935  0.78523074    -0.61600
O47         O  0.66658923  0.76605827  0.78194964    -0.52500
C48         C  0.61876480  0.85702546  0.81500754     0.69500
O49         O  0.62999899  0.87254696  0.78697997    -0.45800
C50         C  0.61249157  0.78307817  0.71822635     0.74200
O51         O  0.70540612  0.84951730  0.74762991    -0.59300
O52         O  0.63994999  0.77096360  0.73373282    -0.49400
O53         O  0.66518002  0.84332094  0.70727686    -0.55700
C54         C  0.69940001  0.77333805  0.78691623     0.84400
O55         O  0.62513507  0.82388635  0.81545187    -0.57600
O56         O  0.60464595  0.81512990  0.72665570    -0.60900
In57       In  0.77590649  0.70113370  0.75974077     1.36900
C58         C  0.72703524  0.74550595  0.78587700     0.76800
O59         O  0.79664170  0.75603372  0.74416423    -0.61600
O60         O  0.78614206  0.71837021  0.70246820    -0.52500
C61         C  0.82831395  0.67417771  0.80176316     0.69500
O62         O  0.79746864  0.68120781  0.81385872    -0.47400
C63         C  0.74071215  0.65189073  0.72054591     0.74200
O64         O  0.75997193  0.75351607  0.78467654    -0.59300
O65         O  0.77163138  0.66360583  0.71302449    -0.49400
O66         O  0.71973006  0.71303622  0.77882860    -0.55700
C67         C  0.79420416  0.75016873  0.71076264     0.84400
O68         O  0.83119326  0.67866458  0.76833700    -0.57600
O69         O  0.72823681  0.66368995  0.75002487    -0.60900
C70         C  0.14972644  0.51368479  0.89715377     0.79500
N71         N  0.12239182  0.52596660  0.91835204    -0.78900
C72         C  0.11190536  0.56119427  0.91622130     0.81900
N73         N  0.12925246  0.58376396  0.89305652    -0.78800
C74         C  0.15602673  0.57117647  0.87148546     0.82000
N75         N  0.16625711  0.53642582  0.87402776    -0.80500
C76         C  0.11445851  0.68805487  0.04907398     0.79500
N77         N  0.13941634  0.70506342  0.02862940    -0.78900
C78         C  0.14404303  0.69619596  0.99341276     0.81900
N79         N  0.12255786  0.67046929  0.97833879    -0.78800
C80         C  0.09736194  0.65324263  0.99860921     0.82000
N81         N  0.09338259  0.66223151  0.03407489    -0.80500
C82         C  0.96570280  0.65855398  0.86860937     0.79500
N83         N  0.97991231  0.63758119  0.89515716    -0.78900
C84         C  0.01568485  0.64000506  0.90359138     0.81900
N85         N  0.03691911  0.66339637  0.88504751    -0.78800
C86         C  0.02279442  0.68436660  0.85848866     0.82000
N87         N  0.98724090  0.68181276  0.85051978    -0.80500
C88         C  0.03261199  0.57429325  0.98245543     0.85700
C89         C  0.06164595  0.55385538  0.96097653    -0.54500
C90         C  0.08243444  0.57535989  0.93944858     0.08600
C91         C  0.07225654  0.61569692  0.94181368     0.19600
C92         C  0.05335563  0.60315584  0.00346171    -0.55200
C93         C  0.07438439  0.62477658  0.98254718     0.08700
C94         C  0.01116637  0.59519545  0.95374406    -0.54800
C95         C  0.03160471  0.61708800  0.93245120     0.09300
H96         H  0.06520075  0.52490700  0.96266668     0.13800
H97         H  0.08915222  0.63345602  0.92470087    -0.00400
H98         H  0.05178833  0.60578286  0.03264527     0.14100
H99         H  0.98213805  0.59294918  0.95087435     0.13900
In100      In  0.27205815  0.83049470  0.86175621     1.36900
C101        C  0.30213011  0.78201320  0.81874738     0.76800
O102        O  0.26862140  0.79049796  0.90813958    -0.61600
O103        O  0.22055799  0.80878385  0.88341731    -0.52500
C104        C  0.30983628  0.88422449  0.89264274     0.69500
O105        O  0.32415976  0.85703007  0.87864945    -0.47400
C106        C  0.22416511  0.84979982  0.81244543     0.74200
O107        O  0.29812341  0.81433201  0.80956712    -0.59300
O108        O  0.21571368  0.84470044  0.84496717    -0.49400
O109        O  0.29530939  0.77547087  0.85142679    -0.55700
C110        C  0.23468329  0.78800230  0.90609339     0.84400
O111        O  0.27598527  0.88315462  0.89216160    -0.57600
O112        O  0.25755344  0.85084761  0.80640798    -0.60900
In113      In  0.28925169  0.70342172  0.74434736     1.36900
C114        C  0.23733503  0.74463753  0.71755195     0.76800
O115        O  0.24834745  0.65854959  0.74952495    -0.61600
O116        O  0.27467528  0.67749880  0.79657276    -0.52500
C117        C  0.34266358  0.67349498  0.70515356     0.69500
O118        O  0.31342956  0.68371934  0.69143318    -0.47400
C119        C  0.30665729  0.75347068  0.79202537     0.74200
O120        O  0.26984829  0.75440546  0.71791342    -0.59300
O121        O  0.30417465  0.72076084  0.80043506    -0.49400
O122        O  0.23213829  0.71216806  0.72585456    -0.55700
C123        C  0.25053459  0.65756041  0.78362717     0.84400
O124        O  0.34402896  0.67797377  0.73872148    -0.57600
O125        O  0.30619783  0.75976929  0.75855421    -0.60900
In126      In  0.15676166  0.81774969  0.73198026     1.36900
C127        C  0.19784802  0.84639882  0.78326049     0.76800
O128        O  0.10944588  0.81345143  0.77071900    -0.61600
O129        O  0.13052645  0.76598111  0.74729698    -0.52500
C130        C  0.12848053  0.85665397  0.67746042     0.69500
O131        O  0.13589811  0.86980671  0.70783232    -0.47400
C132        C  0.20771728  0.77049379  0.71496125     0.74200
O133        O  0.20709376  0.84602854  0.75057500    -0.59300
O134        O  0.17547379  0.76140873  0.72023766    -0.49400
O135        O  0.16582291  0.83685067  0.78901987    -0.55700
C136        C  0.10859901  0.77945099  0.76938484     0.84400
O137        O  0.13410951  0.82333635  0.67563834    -0.57600
O138        O  0.21299622  0.80399439  0.71355045    -0.60900
C139        C  0.46256090  0.98528990  0.12769363     0.79500
N140        N  0.47615062  0.00299566  0.09864277    -0.78900
C141        C  0.51143315  0.99854130  0.08932734     0.81900
N142        N  0.53250581  0.97568980  0.10877893    -0.78800
C143        C  0.51870510  0.95760782  0.13747618     0.82000
N144        N  0.48394372  0.96288636  0.14687841    -0.80500
C145        C  0.65465102  0.11454096  0.07594712     0.79500
N146        N  0.62429463  0.10267594  0.05919776    -0.78900
C147        C  0.61275471  0.06818398  0.06420988     0.81900
N148        N  0.63162841  0.04595079  0.08656842    -0.78800
C149        C  0.66182174  0.05793238  0.10374082     0.82000
N150        N  0.67318966  0.09208167  0.09786828    -0.80500
C151        C  0.59117213  0.92540663  0.94871132     0.79500
N152        N  0.57659516  0.95698320  0.95997211    -0.78900
C153        C  0.58237272  0.96875349  0.99443631     0.81900
N154        N  0.60331491  0.94895762  0.01721401    -0.78800
C155        C  0.61820611  0.91753094  0.00577827     0.82000
N156        N  0.61161273  0.90599605  0.97176447    -0.80500
C157        C  0.52812724  0.05642136  0.00467585     0.85700
C158        C  0.54545594  0.02420381  0.98526136    -0.54500
C159        C  0.56546662  0.00251891  0.00725077     0.08600
C160        C  0.56678562  0.01548850  0.04680850     0.19600
C161        C  0.50684865  0.03962716  0.03605476    -0.55200
C162        C  0.52691548  0.01813968  0.05814828     0.08700
C163        C  0.55979386  0.07610318  0.02289178    -0.54800
C164        C  0.58025961  0.05477032  0.04491943     0.09300
H165        H  0.54155104  0.01878908  0.95668120     0.13800
H166        H  0.58321742  0.99803794  0.06468883    -0.00400
H167        H  0.47823269  0.04411580  0.04003087     0.14100
H168        H  0.56552495  0.10440717  0.01841604     0.13900
In169      In  0.78450405  0.92378804  0.24094682     1.36900
C170        C  0.73157606  0.88507377  0.26753901     0.76800
O171        O  0.73702343  0.95991311  0.23042788    -0.61600
O172        O  0.78089361  0.96231496  0.19404795    -0.52500
C173        C  0.83535489  0.95128789  0.28512480     0.69500
O174        O  0.80407668  0.94406344  0.29581124    -0.47400
C175        C  0.79918677  0.87185340  0.19382338     0.74200
O176        O  0.76344695  0.87337799  0.26664683    -0.59300
O177        O  0.79409935  0.90392327  0.18433021    -0.49400
O178        O  0.72788119  0.91785512  0.25970155    -0.55700
C179        C  0.74924922  0.97240276  0.20127691     0.84400
O180        O  0.84001920  0.94537525  0.25205498    -0.57600
O181        O  0.80205318  0.86727894  0.22739341    -0.60900
In182      In  0.64764413  0.81548287  0.25680999     1.36900
C183        C  0.68746757  0.78446805  0.20661827     0.76800
O184        O  0.60939164  0.82552781  0.21084706    -0.61600
O185        O  0.61137952  0.86342055  0.25378566    -0.52500
C186        C  0.62012620  0.77641795  0.31048402     0.69500
O187        O  0.62374634  0.76419019  0.27902315    -0.47400
C188        C  0.70067845  0.86119518  0.27046909     0.74200
O189        O  0.69711227  0.78586289  0.23922202    -0.59300
O190        O  0.66972682  0.87126941  0.26122743    -0.49400
O191        O  0.65550840  0.79427950  0.20056645    -0.55700
C192        C  0.59905124  0.85555864  0.22300129     0.84400
O193        O  0.62822155  0.80907626  0.31361435    -0.57600
O194        O  0.70365198  0.82804288  0.27669256    -0.60900
In195      In  0.76302951  0.79260572  0.12782443     1.36900
C196        C  0.79425301  0.84187090  0.16872561     0.76800
O197        O  0.71763359  0.79603198  0.08784389    -0.61600
O198        O  0.74927350  0.84258264  0.09643010    -0.52500
C199        C  0.80450323  0.74082144  0.09845939     0.69500
O200        O  0.81452073  0.77308816  0.10047360    -0.47400
C201        C  0.71346831  0.77922751  0.17758673     0.74200
O202        O  0.78884657  0.81021193  0.17973949    -0.59300
O203        O  0.70548995  0.78515276  0.14514984    -0.49400
O204        O  0.78853738  0.84677335  0.13548638    -0.55700
C205        C  0.72164615  0.82918668  0.08182320     0.84400
O206        O  0.77349200  0.73550238  0.11080189    -0.57600
O207        O  0.74661537  0.77503083  0.18362091    -0.60900
C208        C  0.94001233  0.20384606  0.44599712     0.79500
N209        N  0.91991918  0.22369134  0.46907996    -0.78900
C210        C  0.91400959  0.21264191  0.50329335     0.81900
N211        N  0.92834197  0.18105939  0.51463784    -0.78800
C212        C  0.94902411  0.16101059  0.49194124     0.82000
N213        N  0.95468858  0.17238914  0.45741867    -0.80500
C214        C  0.88385695  0.01362512  0.58131082     0.79500
N215        N  0.86323599  0.03662649  0.60067466    -0.78900
C216        C  0.87102783  0.07222950  0.60168919     0.81900
N217        N  0.89957448  0.08486559  0.58275312    -0.78800
C218        C  0.92046463  0.06206023  0.56323278     0.82000
N219        N  0.91260063  0.02624582  0.56262331    -0.80500
C220        C  0.06399623  0.14891096  0.62975176     0.79500
N221        N  0.05124881  0.13061585  0.60076876    -0.78900
C222        C  0.01689174  0.13591555  0.58918345     0.81900
N223        N  0.99541849  0.16014330  0.60669585    -0.78800
C224        C  0.00833114  0.17865984  0.63579974     0.82000
N225        N  0.04240011  0.17247778  0.64721914    -0.80500
C226        C  0.00520774  0.07510382  0.50550886     0.85700
C227        C  0.97373858  0.05494228  0.52309414    -0.54500
C228        C  0.95201590  0.07617872  0.54368998     0.08600
C229        C  0.96390622  0.11590644  0.54508484     0.19600
C230        C  0.98754063  0.10625731  0.48460947    -0.55200
C231        C  0.96616456  0.12781068  0.50540395     0.08700
C232        C  0.02486069  0.09350731  0.53717733    -0.54800
C233        C  0.00324772  0.11504648  0.55790635     0.09300
H234        H  0.96920971  0.02627702  0.51950637     0.13800
H235        H  0.94638193  0.13320245  0.56203829    -0.00400
H236        H  0.99231890  0.11119432  0.45610997     0.14100
H237        H  0.05344129  0.09001851  0.54232877     0.13900
In238      In  0.87697611  0.31755057  0.75916941     1.36900
C239        C  0.83580203  0.34526048  0.70821583     0.76800
O240        O  0.91544830  0.27119505  0.75467470    -0.61600
O241        O  0.91260107  0.30743767  0.71078909    -0.52500
C242        C  0.90723150  0.35934894  0.81058163     0.69500
O243        O  0.89876524  0.37136067  0.77999821    -0.47400
C244        C  0.82620778  0.26925726  0.77414621     0.74200
O245        O  0.82490030  0.34189829  0.74027699    -0.59300
O246        O  0.85794932  0.26061975  0.76618884    -0.49400
O247        O  0.86892540  0.33937830  0.70354141    -0.55700
C248        C  0.92540251  0.27843782  0.72294948     0.84400
O249        O  0.90037010  0.32651020  0.81442165    -0.57600
O250        O  0.82156454  0.30241362  0.77963629    -0.60900
In251      In  0.76598087  0.33375520  0.62414832     1.36900
C252        C  0.73537033  0.28347187  0.66333046     0.76800
O253        O  0.77756730  0.28636268  0.58782699    -0.61600
O254        O  0.81711985  0.32714185  0.59334333    -0.52500
C255        C  0.72846590  0.38671862  0.59212177     0.69500
O256        O  0.71536926  0.35598527  0.59737753    -0.47400
C257        C  0.81099708  0.34866326  0.67781522     0.74200
O258        O  0.73679181  0.31578068  0.67375392    -0.59300
O259        O  0.82134833  0.34372941  0.64589395    -0.49400
O260        O  0.74405629  0.27813388  0.63082027    -0.55700
C261        C  0.80935960  0.29638484  0.58124830     0.84400
O262        O  0.76067582  0.38951786  0.60195930    -0.57600
O263        O  0.77732831  0.35064851  0.68169911    -0.60900
In264      In  0.74669337  0.20382388  0.73750678     1.36900
C265        C  0.79633154  0.24395699  0.76942689     0.76800
O266        O  0.79655356  0.17278317  0.72416819    -0.61600
O267        O  0.74971618  0.16317049  0.69290489    -0.52500
C268        C  0.69469794  0.17216452  0.77621239     0.69500
O269        O  0.72640293  0.17532644  0.78784135    -0.47400
C270        C  0.73191658  0.25393154  0.68888372     0.74200
O271        O  0.76407040  0.25428844  0.76657146    -0.59300
O272        O  0.74019955  0.22230082  0.68029101    -0.49400
O273        O  0.80171647  0.21148679  0.76111783    -0.55700
C274        C  0.78280799  0.15705441  0.69729973     0.84400
O275        O  0.69003983  0.18503077  0.74527467    -0.57600
O276        O  0.72694374  0.25898206  0.72216389    -0.60900
C277        C  0.42966111  0.20337732  0.03890936     0.79500
N278        N  0.44799667  0.17435375  0.02636710    -0.78900
C279        C  0.44338368  0.16317127  0.99153123     0.81900
N280        N  0.41990606  0.18109210  0.96962051    -0.78800
C281        C  0.40116831  0.20992329  0.98239535     0.82000
N282        N  0.40661486  0.22089509  0.01685527    -0.80500
C283        C  0.37948889  0.01884952  0.90938261     0.79500
N284        N  0.40943682  0.03167439  0.92613229    -0.78900
C285        C  0.42213132  0.06520546  0.91804039     0.81900
N286        N  0.40509940  0.08531228  0.89233139    -0.78800
C287        C  0.37556067  0.07193857  0.87504772     0.82000
N288        N  0.36291614  0.03907616  0.88408604    -0.80500
C289        C  0.56523837  0.14987874  0.85275308     0.79500
N290        N  0.54256822  0.17130785  0.83418676    -0.78900
C291        C  0.50848934  0.17697610  0.84534904     0.81900
N292        N  0.49656981  0.16039956  0.87565176    -0.78800
C293        C  0.51896892  0.13864599  0.89487499     0.82000
N294        N  0.55357636  0.13340863  0.88339576    -0.80500
C295        C  0.50472555  0.08035587  0.97957514     0.85700
C296        C  0.47431164  0.05954455  0.96043112    -0.54500
C297        C  0.45330839  0.08012325  0.93830213     0.08600
C298        C  0.46458825  0.12004368  0.93762558     0.19600
C299        C  0.52567330  0.09868813  0.94887654    -0.55200
C300        C  0.50477840  0.11951903  0.92686610     0.08700
C301        C  0.48553960  0.11129748  0.99929520    -0.54800
C302        C  0.46430671  0.13208621  0.97755151     0.09300
H303        H  0.46989523  0.03090546  0.96423174     0.13800
H304        H  0.44742358  0.13689372  0.91985230    -0.00400
H305        H  0.55442206  0.09517564  0.94487363     0.14100
H306        H  0.48845226  0.11604905  0.02810717     0.13900
In307      In  0.25480896  0.19808871  0.73175106     1.36900
C308        C  0.30688531  0.23718005  0.70326152     0.76800
O309        O  0.23830389  0.25533054  0.74381864    -0.61600
O310        O  0.24597003  0.21943657  0.78767378    -0.52500
C311        C  0.20002052  0.16791148  0.69547656     0.69500
O312        O  0.23095921  0.17039478  0.68181662    -0.47400
C313        C  0.28871324  0.14940831  0.77180755     0.74200
O314        O  0.27421628  0.24568798  0.69957637    -0.59300
O315        O  0.26079937  0.16574942  0.78201779    -0.49400
O316        O  0.31230542  0.20634533  0.71622400    -0.55700
C317        C  0.24049700  0.25126435  0.77753656     0.84400
O318        O  0.19778133  0.18091885  0.72662197    -0.57600
O319        O  0.29781226  0.15586651  0.73958257    -0.60900
In320      In  0.38462226  0.31350152  0.71602911     1.36900
C321        C  0.34350705  0.34476555  0.76445234     0.76800
O322        O  0.33078757  0.29613615  0.69320710    -0.61600
O323        O  0.36730751  0.25599978  0.71086234    -0.52500
C324        C  0.41702364  0.35442260  0.66661589     0.69500
O325        O  0.41193122  0.36490306  0.69845565    -0.47400
C326        C  0.43043802  0.27472496  0.75405720     0.74200
O327        O  0.33315185  0.34044900  0.73221210    -0.59300
O328        O  0.42728042  0.27140131  0.72028147    -0.49400
O329        O  0.37636092  0.33843805  0.77018176    -0.55700
C330        C  0.33604426  0.26337093  0.70026146     0.84400
O331        O  0.40613665  0.32297647  0.66054801    -0.57600
O332        O  0.41264973  0.30027077  0.76742606    -0.60900
In333      In  0.26953285  0.33305845  0.84419161     1.36900
C334        C  0.24311627  0.28153099  0.80263421     0.76800
O335        O  0.28485854  0.35318532  0.78893947    -0.61600
O336        O  0.32665158  0.34108926  0.82609579    -0.52500
C337        C  0.22762219  0.38445610  0.87310288     0.69500
O338        O  0.21580588  0.35350700  0.86588995    -0.47400
C339        C  0.30584707  0.29706925  0.89477701     0.74200
O340        O  0.24483090  0.31374734  0.79205765    -0.59300
O341        O  0.31293441  0.32932276  0.88676432    -0.49400
O342        O  0.24973690  0.27684818  0.83570195    -0.55700
C343        C  0.31805155  0.34872653  0.79412142     0.84400
O344        O  0.26025586  0.38859153  0.86548962    -0.57600
O345        O  0.27877854  0.28434155  0.87866245    -0.60900
C346        C  0.15031039  0.11101863  0.40322516     0.79500
N347        N  0.12237705  0.09839328  0.42325990    -0.78900
C348        C  0.11077273  0.06379091  0.41882932     0.81900
N349        N  0.12736742  0.04214858  0.39429486    -0.78800
C350        C  0.15485607  0.05508036  0.37391898     0.82000
N351        N  0.16620544  0.08936038  0.37854657    -0.80500
C352        C  0.96509645  0.96692464  0.36537836     0.79500
N353        N  0.97848240  0.98847998  0.39202250    -0.78900
C354        C  0.01387482  0.98580052  0.40195794     0.81900
N355        N  0.03553829  0.96182286  0.38476432    -0.78800
C356        C  0.02228311  0.94043244  0.35810198     0.82000
N357        N  0.98715257  0.94315751  0.34862897    -0.80500
C358        C  0.10989244  0.93072489  0.54395746     0.79500
N359        N  0.08894845  0.95798239  0.53122033    -0.78900
C360        C  0.09355176  0.97011228  0.49667751     0.81900
N361        N  0.11921477  0.95477205  0.47534106    -0.78800
C362        C  0.14047010  0.92800731  0.48843672     0.82000
N363        N  0.13557273  0.91629746  0.52255772    -0.80500
C364        C  0.02941601  0.05062970  0.48188449     0.85700
C365        C  0.00846442  0.03070638  0.45204738    -0.54500
C366        C  0.02914790  0.00881782  0.43105701     0.08600
C367        C  0.06950690  0.00950516  0.44148114     0.19600
C368        C  0.04913806  0.02073733  0.50291650    -0.55200
C369        C  0.07054765  0.99935655  0.48190016     0.08700
C370        C  0.05945369  0.07095554  0.46192680    -0.54800
C371        C  0.08042165  0.04959605  0.44055736     0.09300
H372        H  0.97956439  0.03335117  0.44837243     0.13800
H373        H  0.08658214  0.99202889  0.42424150    -0.00400
H374        H  0.04683869  0.01739673  0.53195675     0.14100
H375        H  0.06354979  0.09978997  0.46448432     0.13900
In376      In  0.15474535  0.80457987  0.23274689     1.36900
C377        C  0.19821814  0.78144163  0.28418572     0.76800
O378        O  0.20947073  0.81955782  0.21173825    -0.61600
O379        O  0.16872414  0.85963965  0.21198469    -0.52500
C380        C  0.12614684  0.76103431  0.18247235     0.69500
O381        O  0.13903082  0.74942669  0.21161292    -0.47400
C382        C  0.10846790  0.84358020  0.27164181     0.74200
O383        O  0.20672668  0.78002442  0.25133373    -0.59300
O384        O  0.13235159  0.85681370  0.25161108    -0.49400
O385        O  0.16590490  0.78963050  0.29029861    -0.55700
C386        C  0.20168218  0.85240461  0.20854328     0.84400
O387        O  0.12657282  0.79475358  0.17993571    -0.57600
O388        O  0.10664362  0.80959140  0.27036051    -0.60900
In389      In  0.27488827  0.80195062  0.35944440     1.36900
C390        C  0.29678593  0.85204438  0.31353288     0.76800
O391        O  0.25831550  0.77688330  0.30656739    -0.61600
O392        O  0.21767777  0.79157498  0.34417392    -0.52500
C393        C  0.31573097  0.75082659  0.38937043     0.69500
O394        O  0.32857317  0.78075460  0.38003803    -0.47400
C395        C  0.23855387  0.83865136  0.40853819     0.74200
O396        O  0.29996171  0.81901157  0.30656317    -0.59300
O397        O  0.22572516  0.81208746  0.39169375    -0.49400
O398        O  0.28761326  0.85911752  0.34547315    -0.55700
C399        C  0.22519683  0.78118770  0.31274950     0.84400
O400        O  0.28253592  0.74782754  0.38387333    -0.57600
O401        O  0.27172603  0.84436471  0.40320648    -0.60900
In402      In  0.27761018  0.92638294  0.23464818     1.36900
C403        C  0.22937456  0.88037513  0.20926038     0.76800
O404        O  0.30125595  0.87300770  0.25243131    -0.61600
O405        O  0.28667362  0.91127158  0.29237241    -0.52500
C406        C  0.32837382  0.95762877  0.19344800     0.69500
O407        O  0.29816646  0.94856995  0.18102880    -0.47400
C408        C  0.23956473  0.97350265  0.27284858     0.74200
O409        O  0.26240044  0.87278656  0.21109329    -0.59300
O410        O  0.26969423  0.96150719  0.28280600    -0.49400
O411        O  0.22183907  0.91294347  0.21515075    -0.55700
C412        C  0.29682551  0.87974946  0.28555124     0.84400
O413        O  0.33186881  0.95150910  0.22657669    -0.57600
O414        O  0.23019499  0.96392265  0.24144793    -0.60900
C415        C  0.06759404  0.47540724  0.13144990     0.79500
N416        N  0.05575604  0.49311278  0.10159726    -0.78900
C417        C  0.02112279  0.48862599  0.08995586     0.81900
N418        N  0.99878762  0.46580174  0.10815226    -0.78800
C419        C  0.01084050  0.44785875  0.13783788     0.82000
N420        N  0.04498682  0.45326430  0.14940868    -0.80500
C421        C  0.92983847  0.43201288  0.94316296     0.79500
N422        N  0.90748485  0.41362025  0.96528947    -0.78900
C423        C  0.90354327  0.42317977  0.00038760     0.81900
N424        N  0.92301420  0.45115020  0.01368402    -0.78800
C425        C  0.94569666  0.46985432  0.99188252     0.82000
N426        N  0.94902574  0.46026644  0.95640892    -0.80500
C427        C  0.88568071  0.61310329  0.08096434     0.79500
N428        N  0.91484550  0.60033783  0.06278174    -0.78900
C429        C  0.92646767  0.56588574  0.06872871     0.81900
N430        N  0.90862896  0.54464923  0.09282936    -0.78800
C431        C  0.87971102  0.55765954  0.11114069     0.82000
N432        N  0.86860089  0.59163118  0.10473374    -0.80500
C433        C  0.00869995  0.55041847  0.00695629     0.85700
C434        C  0.02901568  0.53030318  0.03713339    -0.54500
C435        C  0.00741087  0.50940294  0.05849587     0.08600
C436        C  0.96734332  0.51056243  0.04736947     0.19600
C437        C  0.98864216  0.52094398  0.98606455    -0.55200
C438        C  0.96700762  0.49997024  0.00696978     0.08700
C439        C  0.97900281  0.57156162  0.02677430    -0.54800
C440        C  0.95723825  0.55088048  0.04796660     0.09300
H441        H  0.05788380  0.53269088  0.04122716     0.13800
H442        H  0.94966446  0.49355466  0.06444621    -0.00400
H443        H  0.99142683  0.51714180  0.95710520     0.14100
H444        H  0.97558918  0.60045617  0.02407525     0.13900
In445      In  0.76401459  0.30010997  0.12915538     1.36900
C446        C  0.73781039  0.35110216  0.17083458     0.76800
O447        O  0.77689147  0.28054637  0.18553745    -0.61600
O448        O  0.81971817  0.28759347  0.14838538    -0.52500
C449        C  0.72485922  0.24846715  0.09645960     0.69500
O450        O  0.71117105  0.27754802  0.10711691    -0.47400
C451        C  0.80428924  0.33755404  0.08356902     0.74200
O452        O  0.73732580  0.31847297  0.18020986    -0.59300
O453        O  0.77261650  0.34704846  0.09146135    -0.49400
O454        O  0.74607386  0.35677896  0.13830671    -0.55700
C455        C  0.81043022  0.28175364  0.18047387     0.84400
O456        O  0.75810984  0.24656630  0.10183583    -0.57600
O457        O  0.81407489  0.30809037  0.09712965    -0.60900
In458      In  0.75383259  0.42884355  0.24691518     1.36900
C459        C  0.80286541  0.38603025  0.27453182     0.76800
O460        O  0.73161911  0.37476093  0.23040979    -0.61600
O461        O  0.74644811  0.41155970  0.18934967    -0.52500
C462        C  0.70325919  0.45793960  0.28846227     0.69500
O463        O  0.73435661  0.45143022  0.30024731    -0.47400
C464        C  0.79051389  0.47756370  0.21018413     0.74200
O465        O  0.76996893  0.37754982  0.27420054    -0.59300
O466        O  0.80290605  0.46264662  0.23811600    -0.49400
O467        O  0.80976277  0.41805853  0.26577957    -0.55700
C468        C  0.73655823  0.38020489  0.19723319     0.84400
O469        O  0.69889888  0.45065728  0.25567651    -0.57600
O470        O  0.75811655  0.46999738  0.20318886    -0.60900
In471      In  0.87948431  0.30990119  0.26058340     1.36900
C472        C  0.83645624  0.28362840  0.21003290     0.76800
O473        O  0.82468536  0.32608164  0.28060229    -0.61600
O474        O  0.86334551  0.36695053  0.26979777    -0.52500
C475        C  0.91064635  0.27134342  0.31308134     0.69500
O476        O  0.90676014  0.25881980  0.28170984    -0.47400
C477        C  0.92763727  0.34915466  0.22485696     0.74200
O478        O  0.82709796  0.28470329  0.24274543    -0.59300
O479        O  0.91485170  0.35819622  0.25502679    -0.49400
O480        O  0.86912930  0.29068457  0.20428729    -0.55700
C481        C  0.83122013  0.35922145  0.27722021     0.84400
O482        O  0.89774646  0.30219275  0.31709834    -0.57600
O483        O  0.91785876  0.31838831  0.21411875    -0.60900
C484        C  0.43687276  0.43155148  0.53858768     0.79500
N485        N  0.45511458  0.46080289  0.52656338    -0.78900
C486        C  0.44820915  0.47404130  0.49297351     0.81900
N487        N  0.42279668  0.45784257  0.47174306    -0.78800
C488        C  0.40368010  0.42931796  0.48449423     0.82000
N489        N  0.41118244  0.41626588  0.51765529    -0.80500
C490        C  0.38630778  0.61814985  0.40884075     0.79500
N491        N  0.41681073  0.60531603  0.42423308    -0.78900
C492        C  0.42554630  0.56989466  0.42064973     0.81900
N493        N  0.40324154  0.54750880  0.40156751    -0.78800
C494        C  0.37238161  0.56045598  0.38621061     0.82000
N495        N  0.36460403  0.59572207  0.39002347    -0.80500
C496        C  0.57233950  0.47076483  0.36457951     0.79500
N497        N  0.55904304  0.49317296  0.39026272    -0.78900
C498        C  0.52376705  0.49098348  0.40001253     0.81900
N499        N  0.50191848  0.46645058  0.38352286    -0.78800
C500        C  0.51539507  0.44386012  0.35798515     0.82000
N501        N  0.55044979  0.44636348  0.34848670    -0.80500
C502        C  0.51030741  0.55646840  0.47960048     0.85700
C503        C  0.53059521  0.53671720  0.44932158    -0.54500
C504        C  0.50922284  0.51508944  0.42834193     0.08600
C505        C  0.46914181  0.51584859  0.43909146     0.19600
C506        C  0.48002298  0.57695846  0.46007586    -0.55200
C507        C  0.45820523  0.55579156  0.43905006     0.08700
C508        C  0.49068533  0.52623401  0.50030457    -0.54800
C509        C  0.46907643  0.50502770  0.47909316     0.09300
H510        H  0.55953752  0.53881470  0.44571866     0.13800
H511        H  0.45172108  0.49861049  0.42185688    -0.00400
H512        H  0.47577191  0.60566450  0.46353304     0.14100
H513        H  0.49374862  0.52209952  0.52917832     0.13900
In514      In  0.26859946  0.29506071  0.36033231     1.36900
C515        C  0.24011527  0.34671221  0.32074156     0.76800
O516        O  0.32153790  0.31019437  0.38490641    -0.61600
O517        O  0.27525139  0.33682370  0.40469950    -0.52500
C518        C  0.22640925  0.24310805  0.38806367     0.69500
O519        O  0.21484869  0.27331835  0.37854857    -0.47400
C520        C  0.31478616  0.27717653  0.30862534     0.74200
O521        O  0.24026877  0.31436770  0.31047811    -0.59300
O522        O  0.32370718  0.27829431  0.34143747    -0.49400
O523        O  0.25013114  0.35187215  0.35284993    -0.55700
C524        C  0.30926109  0.33504294  0.40438970     0.84400
O525        O  0.26010326  0.24032047  0.38612213    -0.57600
O526        O  0.28140238  0.27949937  0.30287699    -0.60900
In527      In  0.38279392  0.31084423  0.22962948     1.36900
C528        C  0.34114660  0.28099652  0.27951522     0.76800
O529        O  0.42544790  0.31525347  0.27332989    -0.61600
O530        O  0.41378091  0.36105021  0.24164880    -0.52500
C531        C  0.41171450  0.27377359  0.17414481     0.69500
O532        O  0.40501148  0.25964347  0.20421973    -0.47400
C533        C  0.33147395  0.35874393  0.21577929     0.74200
O534        O  0.33175609  0.28316558  0.24686326    -0.59300
O535        O  0.36396596  0.36758261  0.21988875    -0.49400
O536        O  0.37357042  0.28914982  0.28565022    -0.55700
C537        C  0.43096575  0.34838101  0.26808852     0.84400
O538        O  0.40437399  0.30668246  0.17287771    -0.57600
O539        O  0.32593228  0.32532116  0.21408112    -0.60900
In540      In  0.25125494  0.42646019  0.24722667     1.36900
C541        C  0.30207735  0.38466270  0.21957338     0.76800
O542        O  0.29870495  0.46154122  0.25991525    -0.61600
O543        O  0.25269674  0.46627901  0.29348884    -0.52500
C544        C  0.19978081  0.45478395  0.20511611     0.69500
O545        O  0.23176355  0.45167052  0.19435086    -0.47400
C546        C  0.23608259  0.37631593  0.29542345     0.74200
O547        O  0.26961850  0.37487223  0.22136311    -0.59300
O548        O  0.24365959  0.40809535  0.30426052    -0.49400
O549        O  0.30763434  0.41731393  0.22711618    -0.55700
C550        C  0.28523472  0.47462757  0.28828193     0.84400
O551        O  0.19480737  0.44378476  0.23671880    -0.57600
O552        O  0.23135807  0.37127377  0.26209973    -0.60900
C553        C  0.49725487  0.38200991  0.33990785    -0.09900
C554        C  0.49187106  0.41929109  0.33754805     0.06300
C555        C  0.46732661  0.43281844  0.31213037    -0.03700
C556        C  0.44885426  0.40917375  0.28929764    -0.08100
C557        C  0.45348296  0.37166634  0.29180169     0.05400
C558        C  0.47798059  0.35810096  0.31771834    -0.03200
Br559      Br  0.48769987  0.30771134  0.32334738    -0.02900
H560        H  0.51680631  0.37148619  0.35889809     0.09300
H561        H  0.43052491  0.42035805  0.26951893     0.07300
Br562      Br  0.45970841  0.48357278  0.30622199    -0.03300
C563        C  0.36191866  0.50542366  0.34880708    -0.09900
C564        C  0.34812213  0.53727716  0.36381538     0.06300
C565        C  0.31196853  0.54704702  0.35526479    -0.03700
C566        C  0.29178887  0.52616681  0.33097015    -0.08100
C567        C  0.30667880  0.49578415  0.31446332     0.05400
C568        C  0.34160881  0.48481755  0.32449512    -0.03200
Br569      Br  0.36197166  0.44049412  0.30763733    -0.02900
H570        H  0.38893109  0.49667695  0.35546174     0.09300
H571        H  0.26445725  0.53406692  0.32446040     0.07300
Br572      Br  0.28719747  0.58770368  0.37578918    -0.03300
C573        C  0.32090296  0.37674896  0.45588841    -0.09900
C574        C  0.33290290  0.36089486  0.42368395     0.06300
C575        C  0.36698435  0.37105698  0.40980931    -0.03700
C576        C  0.38859835  0.39554122  0.42878824    -0.08100
C577        C  0.37735110  0.40977056  0.46190893     0.05400
C578        C  0.34297803  0.40053911  0.47526220    -0.03200
Br579      Br  0.32485926  0.41978148  0.51981706    -0.02900
H580        H  0.29464010  0.36987607  0.46656515     0.09300
H581        H  0.41503319  0.40224914  0.41838907     0.07300
Br582      Br  0.38570815  0.35325400  0.36485549    -0.03300
C583        C  0.67109301  0.45699632  0.34692567    -0.09900
C584        C  0.67327536  0.46994381  0.31136122     0.06300
C585        C  0.64382922  0.48880058  0.29653123    -0.03700
C586        C  0.61184276  0.49142121  0.31599483    -0.08100
C587        C  0.60864878  0.47559283  0.35011029     0.05400
C588        C  0.63880612  0.45935232  0.36622466    -0.03200
Br589      Br  0.63586941  0.43652737  0.41252775    -0.02900
H590        H  0.69347237  0.44235041  0.35859692     0.09300
H591        H  0.58864689  0.50408477  0.30357181     0.07300
Br592      Br  0.64502651  0.51015789  0.24929675    -0.03300
C593        C  0.85000656  0.49065795  0.18310659    -0.09900
C594        C  0.81322385  0.49920857  0.18592090     0.06300
C595        C  0.79869306  0.52583946  0.16326738    -0.03700
C596        C  0.82094715  0.54357638  0.13883670    -0.08100
C597        C  0.85785420  0.53538691  0.13599961     0.05400
C598        C  0.87229494  0.50817297  0.15822036    -0.03200
Br599      Br  0.92195816  0.49421872  0.15697449    -0.02900
H600        H  0.86138708  0.46964238  0.19985906     0.09300
H601        H  0.80907472  0.56413741  0.12187317     0.07300
Br602      Br  0.74913314  0.54048642  0.16511203    -0.03300
C603        C  0.87506540  0.36516466  0.01604535    -0.09900
C604        C  0.87886845  0.40207793  0.02345082     0.06300
C605        C  0.85756690  0.41770675  0.05091320    -0.03700
C606        C  0.83254024  0.39645461  0.06953052    -0.08100
C607        C  0.82883523  0.35964598  0.06175683     0.05400
C608        C  0.85059942  0.34396926  0.03503547    -0.03200
Br609      Br  0.84666716  0.29408464  0.02203767    -0.02900
H610        H  0.89119471  0.35260221  0.99518262     0.09300
H611        H  0.81629220  0.40858955  0.09056471     0.07300
Br612      Br  0.85983063  0.46787899  0.06316141    -0.03300
C613        C  0.98973067  0.42525128  0.19685459    -0.09900
C614        C  0.98751138  0.42346182  0.15900732     0.06300
C615        C  0.96605315  0.39646819  0.14298426    -0.03700
C616        C  0.94755495  0.37189704  0.16492522    -0.08100
C617        C  0.94985943  0.37378147  0.20282534     0.05400
C618        C  0.97122556  0.40091452  0.21873359    -0.03200
Br619      Br  0.97818187  0.40503495  0.27002543    -0.02900
H620        H  0.00642140  0.44559198  0.20959085     0.09300
H621        H  0.93098993  0.35141858  0.15226140     0.07300
Br622      Br  0.96288012  0.39032228  0.09159231    -0.03300
C623        C  0.10904175  0.49274532  0.18045122    -0.09900
C624        C  0.10454539  0.47934098  0.14533312     0.06300
C625        C  0.13390973  0.46299293  0.12780154    -0.03700
C626        C  0.16641248  0.45783568  0.14656777    -0.08100
C627        C  0.16975609  0.46855384  0.18286367     0.05400
C628        C  0.14137537  0.48782736  0.19910252    -0.03200
Br629      Br  0.14496959  0.50706310  0.24719637    -0.02900
H630        H  0.08660342  0.50541885  0.19414610     0.09300
H631        H  0.18797616  0.44297369  0.13373023     0.07300
Br632      Br  0.12909092  0.44325436  0.08012294    -0.03300
C633        C  0.37345223  0.71686675  0.39153005    -0.09900
C634        C  0.33760027  0.72066088  0.40319099     0.06300
C635        C  0.32174079  0.69274067  0.42354552    -0.03700
C636        C  0.34034338  0.66065362  0.42870526    -0.08100
C637        C  0.37445557  0.65544535  0.41363128     0.05400
C638        C  0.39185955  0.68427863  0.39634914    -0.03200
Br639      Br  0.43846530  0.67872221  0.37478910    -0.02900
H640        H  0.38608945  0.73806719  0.37598652     0.09300
H641        H  0.32693598  0.63855051  0.44225908     0.07300
Br642      Br  0.27392559  0.69539191  0.44313447    -0.03300
C643        C  0.20126509  0.90164888  0.48018070    -0.09900
C644        C  0.16698713  0.90911022  0.46573193     0.06300
C645        C  0.15695748  0.89342310  0.43260930    -0.03700
C646        C  0.18091999  0.87065796  0.41472636    -0.08100
C647        C  0.21502444  0.86295200  0.42924218     0.05400
C648        C  0.22533526  0.87884521  0.46216008    -0.03200
Br649      Br  0.27020450  0.86752038  0.48520545    -0.02900
H650        H  0.20889242  0.91273868  0.50618295     0.09300
H651        H  0.17263978  0.85853869  0.38937789     0.07300
Br652      Br  0.10963998  0.89878434  0.41249387    -0.03300
C653        C  0.03289618  0.88024419  0.33096116    -0.09900
C654        C  0.04570952  0.91507568  0.33834143     0.06300
C655        C  0.07946145  0.92555333  0.32460878    -0.03700
C656        C  0.09923823  0.90158905  0.30336785    -0.08100
C657        C  0.08626617  0.86684665  0.29539302     0.05400
C658        C  0.05291830  0.85602450  0.31003658    -0.03200
Br659      Br  0.03223695  0.80950295  0.30124482    -0.02900
H660        H  0.00694486  0.87188776  0.34135579     0.09300
H661        H  0.12494490  0.91042660  0.29276122     0.07300
Br662      Br  0.09898835  0.97289094  0.33171809    -0.03300
C663        C  0.21895241  0.98700019  0.33484421    -0.09900
C664        C  0.21646894  0.99439678  0.29765423     0.06300
C665        C  0.19153705  0.02036759  0.28562903    -0.03700
C666        C  0.17093412  0.03944226  0.31089447    -0.08100
C667        C  0.17378703  0.03206333  0.34794700     0.05400
C668        C  0.19756862  0.00525362  0.35986386    -0.03200
Br669      Br  0.20283946  0.99383335  0.41016223    -0.02900
H670        H  0.23745366  0.96665029  0.34455304     0.09300
H671        H  0.15279271  0.06031516  0.30164509     0.07300
Br672      Br  0.18575474  0.03225630  0.23554807    -0.03300
C673        C  0.21615775  0.18569138  0.42103475    -0.09900
C674        C  0.20262985  0.21271896  0.39826848     0.06300
C675        C  0.16836018  0.20778252  0.38211716    -0.03700
C676        C  0.14969259  0.17539776  0.38705736    -0.08100
C677        C  0.16448401  0.14766675  0.40780910     0.05400
C678        C  0.19735694  0.15337280  0.42584714    -0.03200
Br679      Br  0.21869366  0.11648983  0.45506922    -0.02900
H680        H  0.24222596  0.18900961  0.43380280     0.09300
H681        H  0.12480298  0.17081848  0.37241886     0.07300
Br682      Br  0.14765156  0.24157810  0.34883133    -0.03300
C683        C  0.43531943  0.43363863  0.60524113    -0.09900
C684        C  0.44448455  0.41509514  0.57363422     0.06300
C685        C  0.45225549  0.37813288  0.57526108    -0.03700
C686        C  0.44629286  0.35933675  0.60718248    -0.08100
C687        C  0.43260553  0.37690844  0.63779430     0.05400
C688        C  0.42940979  0.41484160  0.63746250    -0.03200
Br689      Br  0.41256714  0.44211061  0.67813925    -0.02900
H690        H  0.42943459  0.46216615  0.60408445     0.09300
H691        H  0.45007708  0.33042606  0.60728465     0.07300
Br692      Br  0.46789858  0.35165497  0.53352589    -0.03300
C693        C  0.49135360  0.19938389  0.78537692    -0.09900
C694        C  0.48520407  0.19981855  0.82281455     0.06300
C695        C  0.46021988  0.22440718  0.83723184    -0.03700
C696        C  0.44320827  0.24885067  0.81423076    -0.08100
C697        C  0.45046390  0.24924725  0.77690156     0.05400
C698        C  0.47450128  0.22373394  0.76243847    -0.03200
Br699      Br  0.48724355  0.22117075  0.71220358    -0.02900
H700        H  0.51021204  0.18035583  0.77380954     0.09300
H701        H  0.42416722  0.26771576  0.82574063     0.07300
Br702      Br  0.44972332  0.22779284  0.88789117    -0.03300
C703        C  0.34810461  0.12554215  0.79199991    -0.09900
C704        C  0.31051742  0.12721325  0.79671999     0.06300
C705        C  0.29511016  0.11070093  0.82728718    -0.03700
C706        C  0.31718157  0.09399196  0.85271902    -0.08100
C707        C  0.35472069  0.09306452  0.84857552     0.05400
C708        C  0.37024186  0.10864425  0.81763486    -0.03200
Br709      Br  0.42093816  0.10579196  0.80813580    -0.02900
H710        H  0.36042151  0.13804767  0.76866286     0.09300
H711        H  0.30480867  0.08129538  0.87593525     0.07300
Br712      Br  0.24405090  0.10822646  0.83521125    -0.03300
C713        C  0.33121647  0.23767840  0.91205469    -0.09900
C714        C  0.32867826  0.27487563  0.91877440     0.06300
C715        C  0.34931389  0.28994584  0.94690605    -0.03700
C716        C  0.37290379  0.26822906  0.96657711    -0.08100
C717        C  0.37627687  0.23116036  0.95937220     0.05400
C718        C  0.35453189  0.21576040  0.93210706    -0.03200
Br719      Br  0.35342929  0.16500282  0.92239137    -0.02900
H720        H  0.31519167  0.22555001  0.89077550     0.09300
H721        H  0.38869708  0.28059302  0.98788669     0.07300
Br722      Br  0.34483447  0.33933758  0.96150935    -0.03300
C723        C  0.44769259  0.25163670  0.08092103    -0.09900
C724        C  0.43397621  0.21681471  0.07602793     0.06300
C725        C  0.41768216  0.19911208  0.10528448    -0.03700
C726        C  0.41338373  0.21717329  0.13826308    -0.08100
C727        C  0.42437606  0.25318902  0.14228734     0.05400
C728        C  0.44318422  0.26986484  0.11369179    -0.03200
Br729      Br  0.46249686  0.31770921  0.11720618    -0.02900
H730        H  0.46022267  0.26546848  0.05845260     0.09300
H731        H  0.39885740  0.20393454  0.15984349     0.07300
Br732      Br  0.39648579  0.15231779  0.09984763    -0.03300
C733        C  0.66419896  0.16242987  0.83514281    -0.09900
C734        C  0.66475516  0.15700493  0.79755740     0.06300
C735        C  0.63443483  0.14147822  0.78060177    -0.03700
C736        C  0.60313973  0.13548911  0.80051358    -0.08100
C737        C  0.60134074  0.14443697  0.83732484     0.05400
C738        C  0.63266619  0.15642024  0.85507276    -0.03200
Br739      Br  0.63238944  0.16947249  0.90516646    -0.02900
H740        H  0.68738247  0.17406867  0.84860002     0.09300
H741        H  0.57922782  0.12598437  0.78660818     0.07300
Br742      Br  0.63355220  0.12886419  0.73021497    -0.03300
C743        C  0.91049033  0.41768349  0.84423348    -0.09900
C744        C  0.92181617  0.38174186  0.84041849     0.06300
C745        C  0.94297516  0.36630480  0.86803545    -0.03700
C746        C  0.94836163  0.38490060  0.90042528    -0.08100
C747        C  0.93374374  0.41921878  0.90570683     0.05400
C748        C  0.91627276  0.43644306  0.87673670    -0.03200
Br749      Br  0.89636028  0.48376116  0.88196366    -0.02900
H750        H  0.89472046  0.43023499  0.82309221     0.09300
H751        H  0.96228353  0.37162519  0.92242929     0.07300
Br752      Br  0.96442991  0.31951070  0.86358735    -0.03300
C753        C  0.94575315  0.25547103  0.66292405    -0.09900
C754        C  0.94794172  0.25379906  0.70088937     0.06300
C755        C  0.96994795  0.22717247  0.71671437    -0.03700
C756        C  0.98830860  0.20264704  0.69481968    -0.08100
C757        C  0.98578121  0.20393968  0.65698570     0.05400
C758        C  0.96459937  0.23104367  0.64100741    -0.03200
Br759      Br  0.96295780  0.23785863  0.58975034    -0.02900
H760        H  0.92922172  0.27582638  0.65014836     0.09300
H761        H  0.00513005  0.18250453  0.70757306     0.07300
Br762      Br  0.97811920  0.22386254  0.76784629    -0.03300
C763        C  0.10509129  0.13619454  0.68000000    -0.09900
C764        C  0.10078038  0.14364348  0.64323709     0.06300
C765        C  0.13121038  0.15181339  0.62212367    -0.03700
C766        C  0.16474049  0.15669506  0.63902515    -0.08100
C767        C  0.16812342  0.15310447  0.67669942     0.05400
C768        C  0.13846919  0.14021890  0.69671222    -0.03200
Br769      Br  0.14134777  0.12862635  0.74721478    -0.02900
H770        H  0.08192583  0.12886636  0.69619281     0.09300
H771        H  0.18740904  0.16589959  0.62313727     0.07300
Br772      Br  0.12736550  0.16073927  0.57120182    -0.03300
C773        C  0.81145029  0.08995730  0.62541544    -0.09900
C774        C  0.84869243  0.09629787  0.62402655     0.06300
C775        C  0.86368892  0.12363206  0.64584536    -0.03700
C776        C  0.84170335  0.14241524  0.66992691    -0.08100
C777        C  0.80454695  0.13548421  0.67194150     0.05400
C778        C  0.78923672  0.10970339  0.64848223    -0.03200
Br779      Br  0.73857500  0.09938710  0.64679041    -0.02900
H780        H  0.79948645  0.06943716  0.60835093     0.09300
H781        H  0.85376193  0.16293062  0.68692793     0.07300
Br782      Br  0.91396798  0.13570283  0.64558281    -0.03300
C783        C  0.86217795  0.21625280  0.54531108    -0.09900
C784        C  0.88980745  0.23380165  0.52651167     0.06300
C785        C  0.89188535  0.27165434  0.52767054    -0.03700
C786        C  0.86521853  0.29130195  0.54537496    -0.08100
C787        C  0.83624502  0.27397582  0.56235019     0.05400
C788        C  0.83555814  0.23592559  0.56335128    -0.03200
Br789      Br  0.80064704  0.20905103  0.59046839    -0.02900
H790        H  0.86079321  0.18712106  0.54527191     0.09300
H791        H  0.86715123  0.32039562  0.54576210     0.07300
Br792      Br  0.93153937  0.29790981  0.50730078    -0.03300
C793        C  0.95105564  0.25390591  0.40456355    -0.09900
C794        C  0.94402471  0.21713780  0.40879393     0.06300
C795        C  0.93325545  0.19670764  0.37851041    -0.03700
C796        C  0.92484221  0.21432698  0.34602167    -0.08100
C797        C  0.92769964  0.25197247  0.34340532     0.05400
C798        C  0.94341810  0.27133213  0.37222373    -0.03200
Br799      Br  0.95412367  0.32190761  0.36976744    -0.02900
H800        H  0.96045825  0.26967368  0.42737273     0.09300
H801        H  0.91377408  0.19892927  0.32374088     0.07300
Br802      Br  0.92607335  0.14564277  0.38121094    -0.03300
C803        C  0.86481176  0.71170192  0.09160908    -0.09900
C804        C  0.82748391  0.71116341  0.08484344     0.06300
C805        C  0.81212799  0.68015860  0.06908848    -0.03700
C806        C  0.83307698  0.64935334  0.06415101    -0.08100
C807        C  0.86952224  0.64870394  0.07421649     0.05400
C808        C  0.88583525  0.68064863  0.08652115    -0.03200
Br809      Br  0.93546825  0.68168721  0.10080918    -0.02900
H810        H  0.87715452  0.73540089  0.10339903     0.09300
H811        H  0.82022124  0.62493363  0.05454740     0.07300
Br812      Br  0.76248002  0.67787513  0.05456366    -0.03300
C813        C  0.86654616  0.95084325  0.34512768    -0.09900
C814        C  0.86491368  0.96337945  0.30928512     0.06300
C815        C  0.89397522  0.98374488  0.29580752    -0.03700
C816        C  0.92555285  0.98718991  0.31612435    -0.08100
C817        C  0.92851326  0.97172238  0.35048688     0.05400
C818        C  0.89807961  0.95506702  0.36582334    -0.03200
Br819      Br  0.89932284  0.93559477  0.41372876    -0.02900
H820        H  0.84417731  0.93581894  0.35629394     0.09300
H821        H  0.94858971  0.00066315  0.30431875     0.07300
Br822      Br  0.89211211  0.00749272  0.24982494    -0.03300
C823        C  0.64184587  0.85813507  0.02416877    -0.09900
C824        C  0.64249368  0.89569617  0.02870089     0.06300
C825        C  0.66905231  0.91103045  0.05123499    -0.03700
C826        C  0.69484960  0.88886758  0.06758468    -0.08100
C827        C  0.69478549  0.85133415  0.06220103     0.05400
C828        C  0.66749210  0.83599436  0.04049401    -0.03200
Br829      Br  0.66438170  0.78541244  0.03010055    -0.02900
H830        H  0.62161619  0.84585549  0.00696911     0.09300
H831        H  0.71511961  0.90117841  0.08469709     0.07300
Br832      Br  0.67329771  0.96196370  0.05887479    -0.03300
C833        C  0.72082123  0.04007728  0.12976735    -0.09900
C834        C  0.68333837  0.03456365  0.12816899     0.06300
C835        C  0.66776492  0.00880054  0.15143405    -0.03700
C836        C  0.68971640  0.98929321  0.17527786    -0.08100
C837        C  0.72719600  0.99487905  0.17667491     0.05400
C838        C  0.74265065  0.02066256  0.15358040    -0.03200
Br839      Br  0.79298615  0.03240840  0.15485456    -0.02900
H840        H  0.73337224  0.05994678  0.11248096     0.09300
H841        H  0.67736490  0.96949070  0.19279537     0.07300
Br842      Br  0.61674955  0.00062767  0.15397821    -0.03300
C843        C  0.70243834  0.15695388  0.05772660    -0.09900
C844        C  0.66782368  0.15166933  0.07178621     0.06300
C845        C  0.64975672  0.18078763  0.08793255    -0.03700
C846        C  0.66772490  0.21362901  0.09284479    -0.08100
C847        C  0.70372934  0.21783035  0.08195881     0.05400
C848        C  0.72026255  0.18984429  0.06213212    -0.03200
Br849      Br  0.76733292  0.19445323  0.04112086    -0.02900
H850        H  0.71634886  0.13480195  0.04478002     0.09300
H851        H  0.65442685  0.23489471  0.10775747     0.07300
Br852      Br  0.60244042  0.17550216  0.10791726    -0.03300
C853        C  0.58085982  0.88088917  0.16382726    -0.09900
C854        C  0.57697538  0.88078991  0.20158127     0.06300
C855        C  0.55425198  0.90645011  0.21788565    -0.03700
C856        C  0.53636780  0.93173092  0.19647843    -0.08100
C857        C  0.54056474  0.93211027  0.15877338     0.05400
C858        C  0.56289295  0.90616488  0.14241071    -0.03200
Br859      Br  0.56769966  0.90198710  0.09101041    -0.02900
H860        H  0.59825396  0.86137751  0.15086030     0.09300
H861        H  0.51872211  0.95105542  0.20939322     0.07300
Br862      Br  0.54461789  0.90696581  0.26882534    -0.03300
C863        C  0.39785127  0.97106221  0.11940375    -0.09900
C864        C  0.42482913  0.98892755  0.13903327     0.06300
C865        C  0.41708527  0.00188919  0.17383151    -0.03700
C866        C  0.38408406  0.99386049  0.18990379    -0.08100
C867        C  0.35824455  0.97285780  0.17181407     0.05400
C868        C  0.36455380  0.96302798  0.13544207    -0.03200
Br869      Br  0.33116539  0.93459245  0.10789489    -0.02900
H870        H  0.40377741  0.96061457  0.09272718     0.09300
H871        H  0.37947435  0.00233345  0.21753227     0.07300
Br872      Br  0.45215186  0.02810118  0.20152628    -0.03300
C873        C  0.10439579  0.85926519  0.61497081    -0.09900
C874        C  0.11602349  0.87802960  0.64584294     0.06300
C875        C  0.11856566  0.91609994  0.64409316    -0.03700
C876        C  0.11299729  0.93383901  0.61105197    -0.08100
C877        C  0.10448589  0.91437165  0.57975776     0.05400
C878        C  0.09849915  0.87705976  0.58231828    -0.03200
Br879      Br  0.08379853  0.84895537  0.54123447    -0.02900
H880        H  0.10125250  0.83029015  0.61572565     0.09300
H881        H  0.11773490  0.96255841  0.60929933     0.07300
Br882      Br  0.13223297  0.94548743  0.68455910    -0.03300
C883        C  0.31090589  0.94574238  0.91883808    -0.09900
C884        C  0.33038161  0.91590900  0.90609789     0.06300
C885        C  0.36833140  0.91898111  0.90291093    -0.03700
C886        C  0.38503351  0.95245995  0.90818560    -0.08100
C887        C  0.36464915  0.98291776  0.91684157     0.05400
C888        C  0.32772364  0.97893691  0.92429102    -0.03200
Br889      Br  0.29883493  0.01875257  0.94018727    -0.02900
H890        H  0.28205388  0.94391056  0.92270411     0.09300
H891        H  0.41355554  0.95525706  0.90270905     0.07300
Br892      Br  0.39897822  0.87972813  0.88910028    -0.03300
C893        C  0.03332706  0.74413212  0.83007499    -0.09900
C894        C  0.04572717  0.70913767  0.83734250     0.06300
C895        C  0.07863382  0.69786548  0.82228315    -0.03700
C896        C  0.09813424  0.72124844  0.80015864    -0.08100
C897        C  0.08594218  0.75634116  0.79287237     0.05400
C898        C  0.05326619  0.76787438  0.80846598    -0.03200
Br899      Br  0.03349026  0.81479113  0.80002254    -0.02900
H900        H  0.00790985  0.75305533  0.84126747     0.09300
H901        H  0.12325391  0.71184837  0.78867835     0.07300
Br902      Br  0.09718535  0.65009459  0.82869258    -0.03300
C903        C  0.16021503  0.72416230  0.93490482    -0.09900
C904        C  0.16961111  0.71703300  0.97087647     0.06300
C905        C  0.20201835  0.73177834  0.98476646    -0.03700
C906        C  0.22332557  0.75414482  0.96304612    -0.08100
C907        C  0.21285833  0.76259967  0.92767265     0.05400
C908        C  0.18122660  0.74675313  0.91341638    -0.03200
Br909      Br  0.16568184  0.75348536  0.86433828    -0.02900
H910        H  0.13574411  0.71286993  0.92356628     0.09300
H911        H  0.24783879  0.76557490  0.97412468     0.07300
Br912      Br  0.21958000  0.72154892  0.03251509    -0.03300
C913        C  0.08900628  0.73147947  0.09226889    -0.09900
C914        C  0.10902135  0.70012813  0.08642485     0.06300
C915        C  0.12863617  0.68502019  0.11512076    -0.03700
C916        C  0.13149842  0.70375028  0.14790676    -0.08100
C917        C  0.11462407  0.73735179  0.15242315     0.05400
C918        C  0.09113779  0.74980520  0.12519836    -0.03200
Br919      Br  0.06173906  0.79182989  0.13123346    -0.02900
H920        H  0.07307349  0.74273660  0.07050403     0.09300
H921        H  0.14894487  0.69323581  0.16885216     0.07300
Br922      Br  0.15387824  0.64035366  0.10954272    -0.03300
C923        C  0.19531237  0.62421126  0.86361283    -0.09900
C924        C  0.17687210  0.59527439  0.84799261     0.06300
C925        C  0.18242506  0.58713304  0.81125091    -0.03700
C926        C  0.20636866  0.60778568  0.79079749    -0.08100
C927        C  0.22588089  0.63613551  0.80657198     0.05400
C928        C  0.22000564  0.64436406  0.84355121    -0.03200
Br929      Br  0.24425609  0.68251697  0.86896512    -0.02900
H930        H  0.19153021  0.63029694  0.89200183     0.09300
H931        H  0.21009596  0.60127402  0.76251663     0.07300
Br932      Br  0.15744054  0.54845396  0.78760777    -0.03300
C933        C  0.16825448  0.41557167  0.87893071    -0.09900
C934        C  0.20519129  0.41419432  0.88741910     0.06300
C935        C  0.22090276  0.44349959  0.90601351    -0.03700
C936        C  0.20083493  0.47465609  0.91218639    -0.08100
C937        C  0.16494579  0.47726965  0.90074066     0.05400
C938        C  0.14814839  0.44695522  0.88532237    -0.03200
Br939      Br  0.09919136  0.44873478  0.86897077    -0.02900
H940        H  0.15560361  0.39321779  0.86500649     0.09300
H941        H  0.21398185  0.49783727  0.92419379     0.07300
Br942      Br  0.26985602  0.44323681  0.92300371    -0.03300
C943        C  0.88579053  0.64125454  0.80846369    -0.09900
C944        C  0.85960749  0.66354699  0.82414613     0.06300
C945        C  0.86699081  0.67974034  0.85793905    -0.03700
C946        C  0.90102343  0.67534453  0.87400362    -0.08100
C947        C  0.92785591  0.65492961  0.85693925     0.05400
C948        C  0.91960469  0.63691989  0.82451525    -0.03200
Br949      Br  0.95479939  0.60843537  0.79965083    -0.02900
H950        H  0.88061967  0.62863192  0.78255720     0.09300
H951        H  0.90734760  0.68989500  0.89859630     0.07300
Br952      Br  0.83379890  0.71207638  0.88086974    -0.03300
C953        C  0.57927216  0.87503913  0.90741216    -0.09900
C954        C  0.58700588  0.91172265  0.91156870     0.06300
C955        C  0.59841405  0.93163301  0.88134470    -0.03700
C956        C  0.60571532  0.91375964  0.84874495    -0.08100
C957        C  0.60198762  0.87614205  0.84591396     0.05400
C958        C  0.58636188  0.85717144  0.87504289    -0.03200
Br959      Br  0.57574944  0.80652723  0.87380179    -0.02900
H960        H  0.56989430  0.85960617  0.93037893     0.09300
H961        H  0.61696864  0.92897027  0.82652353     0.07300
Br962      Br  0.60923657  0.98204611  0.88451777    -0.03300
C963        C  0.83042270  0.92924750  0.56822319    -0.09900
C964        C  0.84211749  0.90887293  0.59792885     0.06300
C965        C  0.87243343  0.92062346  0.61781229    -0.03700
C966        C  0.88839566  0.95376768  0.60959202    -0.08100
C967        C  0.87468555  0.97528494  0.58175031     0.05400
C968        C  0.84647969  0.96225748  0.56007968    -0.03200
Br969      Br  0.82689984  0.99041457  0.52136953    -0.02900
H970        H  0.80732138  0.92048522  0.55258429     0.09300
H971        H  0.90973391  0.96403451  0.62676488     0.07300
Br972      Br  0.88977983  0.89566569  0.65973389    -0.03300
C973        C  0.58593518  0.71140934  0.65017555    -0.09900
C974        C  0.54845695  0.71578646  0.64909654     0.06300
C975        C  0.53275957  0.74470498  0.66852480    -0.03700
C976        C  0.55440229  0.76713857  0.68969547    -0.08100
C977        C  0.59144760  0.76111188  0.69265084     0.05400
C978        C  0.60741384  0.73331100  0.67205443    -0.03200
Br979      Br  0.65829964  0.72369488  0.67208839    -0.02900
H980        H  0.59856533  0.68988793  0.63506069     0.09300
H981        H  0.54195245  0.78868026  0.70496999     0.07300
Br982      Br  0.48219564  0.75585076  0.66756967    -0.03300
C983        C  0.43505601  0.63776843  0.67966707    -0.09900
C984        C  0.43703744  0.64813002  0.64335360     0.06300
C985        C  0.40605651  0.66143331  0.62615939    -0.03700
C986        C  0.37454728  0.66710086  0.64620793    -0.08100
C987        C  0.37347414  0.65982912  0.68352496     0.05400
C988        C  0.40365107  0.64312632  0.69975325    -0.03200
Br989      Br  0.40474962  0.62817649  0.74940513    -0.02900
H990        H  0.45887852  0.62753384  0.69311192     0.09300
H991        H  0.35166812  0.67952039  0.63303260     0.07300
Br992      Br  0.40707522  0.67638717  0.57660127    -0.03300
C993        C  0.71892642  0.58949758  0.64245401    -0.09900
C994        C  0.68134664  0.59300010  0.63959080     0.06300
C995        C  0.66294466  0.61302128  0.66623783    -0.03700
C996        C  0.68249437  0.63062809  0.69365879    -0.08100
C997        C  0.72031392  0.62846057  0.69524252     0.05400
C998        C  0.73831154  0.60662657  0.66986746    -0.03200
Br999      Br  0.78924455  0.59766785  0.67189728    -0.02900
H1000       H  0.73356123  0.57331471  0.62303929     0.09300
H1001       H  0.66811483  0.64675828  0.71329434     0.07300
Br1002     Br  0.61134488  0.61535756  0.66797118    -0.03300
C1003       C  0.65445782  0.45523251  0.57515535    -0.09900
C1004       C  0.67538479  0.48518935  0.56584957     0.06300
C1005       C  0.71223605  0.48053309  0.55853987    -0.03700
C1006       C  0.72829044  0.44706438  0.56413121    -0.08100
C1007       C  0.70829199  0.41789067  0.57756118     0.05400
C1008       C  0.67057800  0.42170671  0.58139638    -0.03200
Br1009     Br  0.64021414  0.38432602  0.60008486    -0.02900
H1010       H  0.62611528  0.45871626  0.58113018     0.09300
H1011       H  0.75708620  0.44454494  0.56019175     0.07300
Br1012     Br  0.74228525  0.51984871  0.54360037    -0.03300
C1013       C  0.66812983  0.76783718  0.51917639    -0.09900
C1014       C  0.66511714  0.73042271  0.52442336     0.06300
C1015       C  0.68786957  0.71381914  0.55011463    -0.03700
C1016       C  0.71232157  0.73473943  0.57014870    -0.08100
C1017       C  0.71440507  0.77217587  0.56536462     0.05400
C1018       C  0.69222991  0.78863748  0.53939128    -0.03200
Br1019     Br  0.69479195  0.83930046  0.52939275    -0.02900
H1020       H  0.65136398  0.78120728  0.49934832     0.09300
H1021       H  0.72918859  0.72179968  0.59018693     0.07300
Br1022     Br  0.68825149  0.66278503  0.55803417    -0.03300
C1023       C  0.61693968  0.70101143  0.37910419    -0.09900
C1024       C  0.60319875  0.71953379  0.40902085     0.06300
C1025       C  0.58990919  0.75465902  0.40464093    -0.03700
C1026       C  0.59327048  0.77190439  0.37135416    -0.08100
C1027       C  0.60961806  0.75451103  0.34196167     0.05400
C1028       C  0.62026808  0.71817397  0.34560429    -0.03200
Br1029     Br  0.64391782  0.69202192  0.30767234    -0.02900
H1030       H  0.62754692  0.67406736  0.38245436     0.09300
H1031       H  0.58454073  0.79961159  0.36891536     0.07300
Br1032     Br  0.56839020  0.78055105  0.44396763    -0.03300
loop_ 
_geom_bond_atom_site_label_1 
_geom_bond_atom_site_label_2 
_geom_bond_distance 
_geom_bond_site_symmetry_2 
_ccdc_geom_bond_type 
C1            N2   1.357       .  A
C1            N6   1.353       .  A
C1         C1024   1.467       .  S
N2            C3   1.362       .  A
C3            N4   1.366       .  A
C3           C26   1.487       .  S
N4            C5   1.363       .  A
C5            N6   1.355       .  A
C5         C1014   1.488       .  S
C7            N8   1.352       .  A
C7           N12   1.357       .  A
C7         C1004   1.469       .  S
N8            C9   1.353       .  A
C9           N10   1.364       .  A
C9          C994   1.486       .  S
N10          C11   1.366       .  A
C11          N12   1.364       .  A
C11          C21   1.485       .  S
C13          N14   1.360       .  A
C13          N18   1.350       .  A
C13         C984   1.470       .  S
N14          C15   1.366       .  A
C15          N16   1.362       .  A
C15          C24   1.483       .  S
N16          C17   1.361       .  A
C17          N18   1.349       .  A
C17         C974   1.480       .  S
C19          C20   1.539       .  S
C19          C25   1.542       .  S
C19          C23   1.538       .  S
C19         C502   1.563       .  S
C20          H27   1.086       .  S
C20          C21   1.369       .  D
C21          C22   1.542       .  S
C22          C26   1.542       .  S
C22          C24   1.544       .  S
C22          H28   1.110       .  S
C23          H29   1.086       .  S
C23          C24   1.366       .  D
C25          H30   1.086       .  S
C25          C26   1.371       .  D
In31         O33   2.259       .  S
In31         O34   2.240       .  S
In31         O42   2.243       .  S
In31         O36   2.274       .  S
In31         O38   2.242       .  S
In31         O39   2.229       .  S
In31         O40   2.242       .  S
In31         O43   2.263       .  S
C32          C67   1.458       .  S
C32          O38   1.260       .  A
C32          O40   1.261       .  A
O33          C41   1.260       .  A
O34          C41   1.257       .  A
C35         C964   1.476       .  S
C35          O42   1.254       .  A
C35          O36   1.256       .  A
C37        C1017   1.476       .  S
C37          O39   1.260       .  A
C37          O43   1.264       .  A
C41          C45   1.460       .  S
In44         O46   2.237       .  S
In44         O47   2.238       .  S
In44         O55   2.231       .  S
In44         O49   2.277       .  S
In44         O51   2.253       .  S
In44         O52   2.218       .  S
In44         O53   2.242       .  S
In44         O56   2.264       .  S
C45          O51   1.260       .  A
C45          O53   1.258       .  A
O46          C54   1.263       .  A
O47          C54   1.261       .  A
C48         C957   1.484       .  S
C48          O55   1.254       .  A
C48          O49   1.259       .  A
C50         C977   1.472       .  S
C50          O52   1.254       .  A
C50          O56   1.265       .  A
C54          C58   1.458       .  S
In57         O59   2.256       .  S
In57         O60   2.249       .  S
In57         O68   2.240       .  S
In57         O62   2.281       .  S
In57         O64   2.234       .  S
In57         O65   2.225       .  S
In57         O66   2.248       .  S
In57         O69   2.278       .  S
C58          O64   1.259       .  A
C58          O66   1.263       .  A
O59          C67   1.258       .  A
O60          C67   1.256       .  A
C61         C944   1.481       .  S
C61          O68   1.254       .  A
C61          O62   1.258       .  A
C63         C997   1.484       .  S
C63          O65   1.259       .  A
C63          O69   1.264       .  A
C70          N71   1.363       .  A
C70          N75   1.352       .  A
C70         C937   1.473       .  S
N71          C72   1.369       .  A
C72          N73   1.363       .  A
C72          C90   1.489       .  S
N73          C74   1.359       .  A
C74          N75   1.350       .  A
C74         C924   1.470       .  S
C76          N77   1.354       .  A
C76          N81   1.355       .  A
C76         C914   1.467       .  S
N77          C78   1.355   1_554  A
C78          N79   1.363       .  A
C78         C904   1.483       .  S
N79          C80   1.361       .  A
C80          N81   1.363   1_556  A
C80          C93   1.481       .  S
C82          N83   1.361       .  A
C82          N87   1.356       .  A
C82         C947   1.476       .  S
N83          C84   1.367   1_655  A
C84          N85   1.360       .  A
C84          C95   1.489       .  S
N85          C86   1.360       .  A
C86          N87   1.356   1_455  A
C86         C894   1.479       .  S
C88          C89   1.541       .  S
C88          C94   1.539       .  S
C88          C92   1.530   1_556  S
C88         C433   1.550   1_556  S
C89          H96   1.086       .  S
C89          C90   1.368       .  D
C90          C91   1.549       .  S
C91          C95   1.549       .  S
C91          C93   1.547       .  S
C91          H97   1.110       .  S
C92          H98   1.086       .  S
C92          C93   1.363   1_554  D
C94          H99   1.086   1_455  S
C94          C95   1.365       .  D
In100       O102   2.277       .  S
In100       O103   2.226       .  S
In100       O111   2.260       .  S
In100       O105   2.258       .  S
In100       O107   2.244       .  S
In100       O108   2.245       .  S
In100       O109   2.253       .  S
In100       O112   2.250       .  S
C101        C119   1.459       .  S
C101        O107   1.258       .  A
C101        O109   1.260       .  A
O102        C110   1.266       .  A
O103        C110   1.256       .  A
C104        C884   1.487       .  S
C104        O111   1.258       .  A
C104        O105   1.254       .  A
C106        C127   1.461       .  S
C106        O108   1.259       .  A
C106        O112   1.261       .  A
C110        C907   1.480       .  S
In113       O115   2.263       .  S
In113       O116   2.229       .  S
In113       O124   2.254       .  S
In113       O118   2.276       .  S
In113       O120   2.252       .  S
In113       O121   2.241       .  S
In113       O122   2.252       .  S
In113       O125   2.247       .  S
C114        C132   1.464       .  S
C114        O120   1.260       .  A
C114        O122   1.260       .  A
O115        C123   1.266       .  A
O116        C123   1.256       .  A
C117        C987   1.487       .  S
C117        O124   1.254       .  A
C117        O118   1.257       .  A
C119        O121   1.259       .  A
C119        O125   1.261       .  A
C123        C927   1.482       .  S
In126       O128   2.275       .  S
In126       O129   2.230       .  S
In126       O137   2.258       .  S
In126       O131   2.269       .  S
In126       O133   2.250       .  S
In126       O134   2.249       .  S
In126       O135   2.251       .  S
In126       O138   2.257       .  S
C127        O133   1.258       .  A
C127        O135   1.259       .  A
O128        C136   1.265       .  A
O129        C136   1.259       .  A
C130        C874   1.489       .  S
C130        O137   1.258       .  A
C130        O131   1.255       .  A
C132        O134   1.259       .  A
C132        O138   1.261       .  A
C136        C897   1.485       .  S
C139        N140   1.359   1_565  A
C139        N144   1.353       .  A
C139        C864   1.470       .  S
N140        C141   1.366   1_545  A
C141        N142   1.361       .  A
C141        C162   1.482   1_565  S
N142        C143   1.359       .  A
C143        N144   1.352       .  A
C143        C857   1.477       .  S
C145        N146   1.358       .  A
C145        N150   1.353       .  A
C145        C844   1.472       .  S
N146        C147   1.364       .  A
C147        N148   1.364       .  A
C147        C164   1.486       .  S
N148        C149   1.362       .  A
C149        N150   1.355       .  A
C149        C834   1.487       .  S
C151        N152   1.358       .  A
C151        N156   1.351       .  A
C151        C954   1.473       .  S
N152        C153   1.365       .  A
C153        N154   1.363   1_556  A
C153        C159   1.481   1_566  S
N154        C155   1.360       .  A
C155        N156   1.351   1_554  A
C155        C824   1.481       .  S
C157        C158   1.538   1_554  S
C157        C163   1.538       .  S
C157        C161   1.539       .  S
C157        C295   1.553   1_554  S
C158        H165   1.086       .  S
C158        C159   1.366   1_556  D
C159        C160   1.542       .  S
C160        C164   1.544       .  S
C160        C162   1.543       .  S
C160        H166   1.110   1_545  S
C161        H167   1.086       .  S
C161        C162   1.365       .  D
C163        H168   1.086       .  S
C163        C164   1.368       .  D
In169       O171   2.251       .  S
In169       O172   2.256       .  S
In169       O180   2.248       .  S
In169       O174   2.282       .  S
In169       O176   2.243       .  S
In169       O177   2.250       .  S
In169       O178   2.226       .  S
In169       O181   2.255       .  S
C170        C188   1.454       .  S
C170        O176   1.262       .  A
C170        O178   1.260       .  A
O171        C179   1.261       .  A
O172        C179   1.263       .  A
C173        C814   1.484       .  S
C173        O180   1.256       .  A
C173        O174   1.257       .  A
C175        C196   1.461       .  S
C175        O177   1.257       .  A
C175        O181   1.259       .  A
C179        C837   1.483       .  S
In182       O184   2.247       .  S
In182       O185   2.237       .  S
In182       O193   2.237       .  S
In182       O187   2.259       .  S
In182       O189   2.240       .  S
In182       O190   2.234       .  S
In182       O191   2.245       .  S
In182       O194   2.253       .  S
C183        C201   1.459       .  S
C183        O189   1.259       .  A
C183        O191   1.262       .  A
O184        C192   1.263       .  A
O185        C192   1.261       .  A
C186       C1027   1.475       .  S
C186        O193   1.255       .  A
C186        O187   1.257       .  A
C188        O190   1.256       .  A
C188        O194   1.259       .  A
C192        C854   1.477       .  S
In195       O197   2.245       .  S
In195       O198   2.251       .  S
In195       O206   2.247       .  S
In195       O200   2.284       .  S
In195       O202   2.243       .  S
In195       O203   2.249       .  S
In195       O204   2.241       .  S
In195       O207   2.252       .  S
C196        O202   1.262       .  A
C196        O204   1.262       .  A
O197        C205   1.261       .  A
O198        C205   1.260       .  A
C199        C804   1.483       .  S
C199        O206   1.255       .  A
C199        O200   1.257       .  A
C201        O203   1.256       .  A
C201        O207   1.261       .  A
C205        C827   1.484       .  S
C208        N209   1.354       .  A
C208        N213   1.358       .  A
C208        C794   1.472       .  S
N209        C210   1.350       .  A
C210        N211   1.356       .  A
C210        C784   1.472       .  S
N211        C212   1.361       .  A
C212        N213   1.363       .  A
C212        C231   1.476       .  S
C214        N215   1.354       .  A
C214        N219   1.357       .  A
C214        C967   1.465   1_545  S
N215        C216   1.354       .  A
C216        N217   1.356       .  A
C216        C774   1.474       .  S
N217        C218   1.358       .  A
C218        N219   1.362       .  A
C218        C228   1.475       .  S
C220        N221   1.354       .  A
C220        N225   1.353       .  A
C220        C764   1.467       .  S
N221        C222   1.360       .  A
C222        N223   1.367   1_455  A
C222        C233   1.481       .  S
N223        C224   1.364   1_655  A
C224        N225   1.353       .  A
C224        C757   1.483   1_455  S
C226        C227   1.534   1_455  S
C226        C232   1.539       .  S
C226        C230   1.540   1_455  S
C226        C364   1.550       .  S
C227        H234   1.086       .  S
C227        C228   1.362       .  D
C228        C229   1.541       .  S
C229        C233   1.536   1_655  S
C229        C231   1.537       .  S
C229        H235   1.110       .  S
C230        H236   1.086       .  S
C230        C231   1.366       .  D
C232        H237   1.086       .  S
C232        C233   1.369       .  D
In238       O240   2.245       .  S
In238       O241   2.260       .  S
In238       O249   2.245       .  S
In238       O243   2.288       .  S
In238       O245   2.247       .  S
In238       O246   2.245       .  S
In238       O247   2.234       .  S
In238       O250   2.265       .  S
C239        C257   1.459       .  S
C239        O245   1.261       .  A
C239        O247   1.262       .  A
O240        C248   1.261       .  A
O241        C248   1.262       .  A
C242        C744   1.483       .  S
C242        O249   1.255       .  A
C242        O243   1.257       .  A
C244        C265   1.464       .  S
C244        O246   1.257       .  A
C244        O250   1.261       .  A
C248        C754   1.486       .  S
In251       O253   2.256       .  S
In251       O254   2.230       .  S
In251       O262   2.239       .  S
In251       O256   2.280       .  S
In251       O258   2.237       .  S
In251       O259   2.237       .  S
In251       O260   2.235       .  S
In251       O263   2.259       .  S
C252        C270   1.456       .  S
C252        O258   1.262       .  A
C252        O260   1.262       .  A
O253        C261   1.262       .  A
O254        C261   1.260       .  A
C255       C1007   1.482       .  S
C255        O262   1.254       .  A
C255        O256   1.256       .  A
C257        O259   1.256       .  A
C257        O263   1.261       .  A
C261        C787   1.477       .  S
In264       O266   2.238       .  S
In264       O267   2.239       .  S
In264       O275   2.235       .  S
In264       O269   2.274       .  S
In264       O271   2.254       .  S
In264       O272   2.240       .  S
In264       O273   2.239       .  S
In264       O276   2.251       .  S
C265        O271   1.263       .  A
C265        O273   1.261       .  A
O266        C274   1.260       .  A
O267        C274   1.260       .  A
C268        C734   1.477       .  S
C268        O275   1.254       .  A
C268        O269   1.258       .  A
C270        O272   1.256       .  A
C270        O276   1.260       .  A
C274        C777   1.475       .  S
C277        N278   1.358       .  A
C277        N282   1.350       .  A
C277        C724   1.470       .  S
N278        C279   1.365   1_554  A
C279        N280   1.365       .  A
C279        C302   1.486       .  S
N280        C281   1.363       .  A
C281        N282   1.353   1_556  A
C281        C717   1.485       .  S
C283        N284   1.358       .  A
C283        N288   1.350       .  A
C283        C887   1.471   1_545  S
N284        C285   1.366       .  A
C285        N286   1.366       .  A
C285        C297   1.485       .  S
N286        C287   1.362       .  A
C287        N288   1.351       .  A
C287        C707   1.475       .  S
C289        N290   1.348       .  A
C289        N294   1.361       .  A
C289        C737   1.472       .  S
N290        C291   1.349       .  A
C291        N292   1.355       .  A
C291        C694   1.472       .  S
N292        C293   1.361       .  A
C293        N294   1.368       .  A
C293        C300   1.480       .  S
C295        C296   1.539       .  S
C295        C301   1.537       .  S
C295        C299   1.538       .  S
C296        H303   1.086       .  S
C296        C297   1.366       .  D
C297        C298   1.541       .  S
C298        C302   1.544       .  S
C298        C300   1.545       .  S
C298        H304   1.110       .  S
C299        H305   1.086       .  S
C299        C300   1.366       .  D
C301        H306   1.086   1_556  S
C301        C302   1.367       .  D
In307       O309   2.258       .  S
In307       O310   2.241       .  S
In307       O318   2.219       .  S
In307       O312   2.291       .  S
In307       O314   2.253       .  S
In307       O315   2.228       .  S
In307       O316   2.233       .  S
In307       O319   2.259       .  S
C308        C330   1.460       .  S
C308        O314   1.261       .  A
C308        O316   1.259       .  A
O309        C317   1.260       .  A
O310        C317   1.258       .  A
C311        C767   1.478       .  S
C311        O318   1.252       .  A
C311        O312   1.259       .  A
C313        C704   1.479       .  S
C313        O315   1.260       .  A
C313        O319   1.264       .  A
C317        C334   1.461       .  S
In320       O322   2.262       .  S
In320       O323   2.239       .  S
In320       O331   2.233       .  S
In320       O325   2.259       .  S
In320       O327   2.241       .  S
In320       O328   2.233       .  S
In320       O329   2.229       .  S
In320       O332   2.223       .  S
C321        C343   1.458       .  S
C321        O327   1.263       .  A
C321        O329   1.260       .  A
O322        C330   1.261       .  A
O323        C330   1.256       .  A
C324        C687   1.475       .  S
C324        O331   1.256       .  A
C324        O325   1.255       .  A
C326        C697   1.472       .  S
C326        O328   1.261       .  A
C326        O332   1.258       .  A
In333       O335   2.253       .  S
In333       O336   2.245       .  S
In333       O344   2.235       .  S
In333       O338   2.282       .  S
In333       O340   2.251       .  S
In333       O341   2.257       .  S
In333       O342   2.235       .  S
In333       O345   2.243       .  S
C334        O340   1.262       .  A
C334        O342   1.261       .  A
O335        C343   1.258       .  A
O336        C343   1.258       .  A
C337        C934   1.482       .  S
C337        O344   1.254       .  A
C337        O338   1.259       .  A
C339        C714   1.480       .  S
C339        O341   1.263       .  A
C339        O345   1.259       .  A
C346        N347   1.360       .  A
C346        N351   1.353       .  A
C346        C677   1.469       .  S
N347        C348   1.365       .  A
C348        N349   1.361       .  A
C348        C371   1.483       .  S
N349        C350   1.358       .  A
C350        N351   1.352       .  A
C350        C667   1.467       .  S
C352        N353   1.363       .  A
C352        N357   1.355       .  A
C352        C817   1.476       .  S
N353        C354   1.368   1_655  A
C354        N355   1.359       .  A
C354        C366   1.486   1_565  S
N355        C356   1.358       .  A
C356        N357   1.354   1_455  A
C356        C654   1.477       .  S
C358        N359   1.362       .  A
C358        N363   1.352       .  A
C358        C877   1.473       .  S
N359        C360   1.368       .  A
C360        N361   1.364       .  A
C360        C369   1.487       .  S
N361        C362   1.360       .  A
C362        N363   1.349       .  A
C362        C644   1.474       .  S
C364        C365   1.538       .  S
C364        C370   1.537       .  S
C364        C368   1.542       .  S
C365        H372   1.086   1_455  S
C365        C366   1.363       .  D
C366        C367   1.547       .  S
C367        C371   1.544       .  S
C367        C369   1.544   1_545  S
C367        H373   1.110   1_545  S
C368        H374   1.086       .  S
C368        C369   1.367   1_545  D
C370        H375   1.086       .  S
C370        C371   1.365       .  D
In376       O378   2.247       .  S
In376       O379   2.247       .  S
In376       O387   2.245       .  S
In376       O381   2.268       .  S
In376       O383   2.244       .  S
In376       O384   2.224       .  S
In376       O385   2.241       .  S
In376       O388   2.274       .  S
C377        C399   1.455       .  S
C377        O383   1.258       .  A
C377        O385   1.259       .  A
O378        C386   1.260       .  A
O379        C386   1.260       .  A
C380        C917   1.480       .  S
C380        O387   1.257       .  A
C380        O381   1.257       .  A
C382        C657   1.484       .  S
C382        O384   1.257       .  A
C382        O388   1.266       .  A
C386        C403   1.462       .  S
In389       O391   2.251       .  S
In389       O392   2.230       .  S
In389       O400   2.225       .  S
In389       O394   2.275       .  S
In389       O396   2.261       .  S
In389       O397   2.215       .  S
In389       O398   2.237       .  S
In389       O401   2.262       .  S
C390        C412   1.462       .  S
C390        O396   1.260       .  A
C390        O398   1.258       .  A
O391        C399   1.262       .  A
O392        C399   1.257       .  A
C393        C634   1.477       .  S
C393        O400   1.254       .  A
C393        O394   1.259       .  A
C395        C647   1.472       .  S
C395        O397   1.259       .  A
C395        O401   1.266       .  A
In402       O404   2.268       .  S
In402       O405   2.235       .  S
In402       O413   2.240       .  S
In402       O407   2.283       .  S
In402       O409   2.244       .  S
In402       O410   2.228       .  S
In402       O411   2.247       .  S
In402       O414   2.262       .  S
C403        O409   1.260       .  A
C403        O411   1.261       .  A
O404        C412   1.262       .  A
O405        C412   1.256       .  A
C406        C867   1.482       .  S
C406        O413   1.254       .  A
C406        O407   1.257       .  A
C408        C664   1.478       .  S
C408        O410   1.260       .  A
C408        O414   1.263       .  A
C415        N416   1.360       .  A
C415        N420   1.351       .  A
C415        C624   1.471       .  S
N416        C417   1.366       .  A
C417        N418   1.365   1_455  A
C417        C435   1.488       .  S
N418        C419   1.362   1_655  A
C419        N420   1.352       .  A
C419        C614   1.480   1_455  S
C421        N422   1.353       .  A
C421        N426   1.359       .  A
C421        C747   1.473       .  S
N422        C423   1.355   1_556  A
C423        N424   1.357       .  A
C423        C604   1.479       .  S
N424        C425   1.359   1_554  A
C425        N426   1.366       .  A
C425        C438   1.478   1_556  S
C427        N428   1.361       .  A
C427        N432   1.348       .  A
C427        C807   1.475       .  S
N428        C429   1.370       .  A
C429        N430   1.364       .  A
C429        C440   1.487       .  S
N430        C431   1.360       .  A
C431        N432   1.350       .  A
C431        C597   1.481       .  S
C433        C434   1.542       .  S
C433        C439   1.541   1_455  S
C433        C437   1.532   1_454  S
C434        H441   1.086       .  S
C434        C435   1.369       .  D
C435        C436   1.544   1_455  S
C436        C440   1.545       .  S
C436        C438   1.546       .  S
C436        H442   1.110       .  S
C437        H443   1.086       .  S
C437        C438   1.362   1_556  D
C439        H444   1.086       .  S
C439        C440   1.365       .  D
In445       O447   2.262       .  S
In445       O448   2.236       .  S
In445       O456   2.241       .  S
In445       O450   2.282       .  S
In445       O452   2.241       .  S
In445       O453   2.258       .  S
In445       O454   2.235       .  S
In445       O457   2.226       .  S
C446        C468   1.457       .  S
C446        O452   1.262       .  A
C446        O454   1.261       .  A
O447        C455   1.261       .  A
O448        C455   1.257       .  A
C449        C847   1.481       .  S
C449        O456   1.252       .  A
C449        O450   1.258       .  A
C451        C607   1.470       .  S
C451        O453   1.263       .  A
C451        O457   1.259       .  A
C455        C472   1.460       .  S
In458       O460   2.255       .  S
In458       O461   2.241       .  S
In458       O469   2.220       .  S
In458       O463   2.264       .  S
In458       O465   2.240       .  S
In458       O466   2.237       .  S
In458       O467   2.227       .  S
In458       O470   2.235       .  S
C459        C481   1.454       .  S
C459        O465   1.261       .  A
C459        O467   1.260       .  A
O460        C468   1.259       .  A
O461        C468   1.256       .  A
C462        C584   1.470       .  S
C462        O469   1.253       .  A
C462        O463   1.258       .  A
C464        C594   1.473       .  S
C464        O466   1.261       .  A
C464        O470   1.262       .  A
In471       O473   2.249       .  S
In471       O474   2.230       .  S
In471       O482   2.217       .  S
In471       O476   2.291       .  S
In471       O478   2.255       .  S
In471       O479   2.233       .  S
In471       O480   2.234       .  S
In471       O483   2.258       .  S
C472        O478   1.261       .  A
C472        O480   1.260       .  A
O473        C481   1.261       .  A
O474        C481   1.258       .  A
C475        C797   1.477       .  S
C475        O482   1.252       .  A
C475        O476   1.258       .  A
C477        C617   1.479       .  S
C477        O479   1.260       .  A
C477        O483   1.263       .  A
C484        N485   1.356       .  A
C484        N489   1.352       .  A
C484        C684   1.463       .  S
N485        C486   1.362       .  A
C486        N487   1.366       .  A
C486        C509   1.480       .  S
N487        C488   1.361       .  A
C488        N489   1.349       .  A
C488        C577   1.475       .  S
C490        N491   1.355       .  A
C490        N495   1.351       .  A
C490        C637   1.465       .  S
N491        C492   1.362       .  A
C492        N493   1.368       .  A
C492        C507   1.486       .  S
N493        C494   1.367       .  A
C494        N495   1.350       .  A
C494        C564   1.495       .  S
C496        N497   1.357       .  A
C496        N501   1.354       .  A
C496        C587   1.463       .  S
N497        C498   1.362       .  A
C498        N499   1.363       .  A
C498        C504   1.481       .  S
N499        C500   1.360       .  A
C500        N501   1.352       .  A
C500        C554   1.471       .  S
C502        C503   1.538       .  S
C502        C508   1.544       .  S
C502        C506   1.539       .  S
C503        H510   1.086       .  S
C503        C504   1.369       .  D
C504        C505   1.542       .  S
C505        C509   1.535       .  S
C505        C507   1.539       .  S
C505        H511   1.110       .  S
C506        H512   1.086       .  S
C506        C507   1.369       .  D
C508        H513   1.086       .  S
C508        C509   1.370       .  D
In514       O516   2.236       .  S
In514       O517   2.271       .  S
In514       O525   2.271       .  S
In514       O519   2.257       .  S
In514       O521   2.242       .  S
In514       O522   2.252       .  S
In514       O523   2.238       .  S
In514       O526   2.255       .  S
C515        C546   1.454       .  S
C515        O521   1.260       .  A
C515        O523   1.259       .  A
O516        C524   1.257       .  A
O517        C524   1.265       .  A
C518        C674   1.483       .  S
C518        O525   1.258       .  A
C518        O519   1.253       .  A
C520        C528   1.464       .  S
C520        O522   1.259       .  A
C520        O526   1.261       .  A
C524        C574   1.482       .  S
In527       O529   2.268       .  S
In527       O530   2.235       .  S
In527       O538   2.255       .  S
In527       O532   2.277       .  S
In527       O534   2.249       .  S
In527       O535   2.252       .  S
In527       O536   2.253       .  S
In527       O539   2.254       .  S
C528        O534   1.260       .  A
C528        O536   1.261       .  A
O529        C537   1.263       .  A
O530        C537   1.260       .  A
C531        C727   1.482       .  S
C531        O538   1.254       .  A
C531        O532   1.257       .  A
C533        C541   1.463       .  S
C533        O535   1.259       .  A
C533        O539   1.260       .  A
C537        C557   1.487       .  S
In540       O542   2.239       .  S
In540       O543   2.262       .  S
In540       O551   2.227       .  S
In540       O545   2.288       .  S
In540       O547   2.249       .  S
In540       O548   2.238       .  S
In540       O549   2.249       .  S
In540       O552   2.249       .  S
C541        O547   1.261       .  A
C541        O549   1.261       .  A
O542        C550   1.261       .  A
O543        C550   1.262       .  A
C544        C627   1.478       .  S
C544        O551   1.254       .  A
C544        O545   1.259       .  A
C546        O548   1.256       .  A
C546        O552   1.259       .  A
C550        C567   1.478       .  S
C553        C554   1.403       .  A
C553        C558   1.404       .  A
C553        H560   1.084       .  S
C554        C555   1.403       .  A
C555        C556   1.397       .  A
C555       Br562   1.920       .  S
C556        C557   1.408       .  A
C556        H561   1.083       .  S
C557        C558   1.415       .  A
C558       Br559   1.919       .  S
C563        C564   1.404       .  A
C563        C568   1.400       .  A
C563        H570   1.083       .  S
C564        C565   1.426       .  A
C565        C566   1.402       .  A
C565       Br572   1.926       .  S
C566        C567   1.398       .  A
C566        H571   1.084       .  S
C567        C568   1.409       .  A
C568       Br569   1.917       .  S
C573        C574   1.402       .  A
C573        C578   1.401       .  A
C573        H580   1.083       .  S
C574        C575   1.418       .  A
C575        C576   1.400       .  A
C575       Br582   1.921       .  S
C576        C577   1.399       .  A
C576        H581   1.084       .  S
C577        C578   1.412       .  A
C578       Br579   1.920       .  S
C583        C584   1.405       .  A
C583        C588   1.399       .  A
C583        H590   1.084       .  S
C584        C585   1.410       .  A
C585        C586   1.394       .  A
C585       Br592   1.922       .  S
C586        C587   1.399       .  A
C586        H591   1.084       .  S
C587        C588   1.405       .  A
C588       Br589   1.917       .  S
C593        C594   1.407       .  A
C593        C598   1.400       .  A
C593        H600   1.084       .  S
C594        C595   1.406       .  A
C595        C596   1.392       .  A
C595       Br602   1.921       .  S
C596        C597   1.408       .  A
C596        H601   1.083       .  S
C597        C598   1.410       .  A
C598       Br599   1.917       .  S
C603        C604   1.405       .  A
C603        C608   1.394       .  A
C603        H610   1.084   1_554  S
C604        C605   1.414       .  A
C605        C606   1.402       .  A
C605       Br612   1.920       .  S
C606        C607   1.404       .  A
C606        H611   1.084       .  S
C607        C608   1.405       .  A
C608       Br609   1.920       .  S
C613        C614   1.405       .  A
C613        C618   1.396       .  A
C613        H620   1.084   1_655  S
C614        C615   1.410       .  A
C615        C616   1.403       .  A
C615       Br622   1.919       .  S
C616        C617   1.407       .  A
C616        H621   1.084       .  S
C617        C618   1.410       .  A
C618       Br619   1.922       .  S
C623        C624   1.401       .  A
C623        C628   1.396       .  A
C623        H630   1.084       .  S
C624        C625   1.408       .  A
C625        C626   1.405       .  A
C625       Br632   1.918       .  S
C626        C627   1.406       .  A
C626        H631   1.083       .  S
C627        C628   1.410       .  A
C628       Br629   1.922       .  S
C633        C634   1.407       .  A
C633        C638   1.403       .  A
C633        H640   1.083       .  S
C634        C635   1.412       .  A
C635        C636   1.392       .  A
C635       Br642   1.922       .  S
C636        C637   1.399       .  A
C636        H641   1.084       .  S
C637        C638   1.406       .  A
C638       Br639   1.918       .  S
C643        C644   1.408       .  A
C643        C648   1.401       .  A
C643        H650   1.084       .  S
C644        C645   1.406       .  A
C645        C646   1.396       .  A
C645       Br652   1.918       .  S
C646        C647   1.405       .  A
C646        H651   1.084       .  S
C647        C648   1.406       .  A
C648       Br649   1.918       .  S
C653        C654   1.405       .  A
C653        C658   1.401       .  A
C653        H660   1.084       .  S
C654        C655   1.408       .  A
C655        C656   1.397       .  A
C655       Br662   1.920       .  S
C656        C657   1.408       .  A
C656        H661   1.084       .  S
C657        C658   1.411       .  A
C658       Br659   1.918       .  S
C663        C664   1.407       .  A
C663        C668   1.396   1_565  A
C663        H670   1.084       .  S
C664        C665   1.410   1_565  A
C665        C666   1.401       .  A
C665       Br672   1.918       .  S
C666        C667   1.403       .  A
C666        H671   1.084       .  S
C667        C668   1.403       .  A
C668       Br669   1.920   1_545  S
C673        C674   1.405       .  A
C673        C678   1.400       .  A
C673        H680   1.083       .  S
C674        C675   1.417       .  A
C675        C676   1.401       .  A
C675       Br682   1.921       .  S
C676        C677   1.399       .  A
C676        H681   1.084       .  S
C677        C678   1.406       .  A
C678       Br679   1.919       .  S
C683        C684   1.400       .  A
C683        C688   1.401       .  A
C683        H690   1.084       .  S
C684        C685   1.405       .  A
C685        C686   1.392       .  A
C685       Br692   1.921       .  S
C686        C687   1.403       .  A
C686        H691   1.084       .  S
C687        C688   1.415       .  A
C688       Br689   1.920       .  S
C693        C694   1.405       .  A
C693        C698   1.391       .  A
C693        H700   1.084       .  S
C694        C695   1.408       .  A
C695        C696   1.397       .  A
C695       Br702   1.920       .  S
C696        C697   1.408       .  A
C696        H701   1.084       .  S
C697        C698   1.409       .  A
C698       Br699   1.922       .  S
C703        C704   1.408       .  A
C703        C708   1.404       .  A
C703        H710   1.083       .  S
C704        C705   1.410       .  A
C705        C706   1.394       .  A
C705       Br712   1.921       .  S
C706        C707   1.403       .  A
C706        H711   1.084       .  S
C707        C708   1.408       .  A
C708       Br709   1.919       .  S
C713        C714   1.407       .  A
C713        C718   1.402       .  A
C713        H720   1.084       .  S
C714        C715   1.407       .  A
C715        C716   1.397       .  A
C715       Br722   1.920       .  S
C716        C717   1.408       .  A
C716        H721   1.084       .  S
C717        C718   1.412       .  A
C718       Br719   1.920       .  S
C723        C724   1.402       .  A
C723        C728   1.399       .  A
C723        H730   1.084       .  S
C724        C725   1.406       .  A
C725        C726   1.402       .  A
C725       Br732   1.918       .  S
C726        C727   1.406       .  A
C726        H731   1.083       .  S
C727        C728   1.413       .  A
C728       Br729   1.921       .  S
C733        C734   1.406       .  A
C733        C738   1.403       .  A
C733        H740   1.083       .  S
C734        C735   1.411       .  A
C735        C736   1.395       .  A
C735       Br742   1.923       .  S
C736        C737   1.404       .  A
C736        H741   1.084       .  S
C737        C738   1.407       .  A
C738       Br739   1.916       .  S
C743        C744   1.408       .  A
C743        C748   1.406       .  A
C743        H750   1.083       .  S
C744        C745   1.411       .  A
C745        C746   1.397       .  A
C745       Br752   1.920       .  S
C746        C747   1.400       .  A
C746        H751   1.084       .  S
C747        C748   1.408       .  A
C748       Br749   1.918       .  S
C753        C754   1.409       .  A
C753        C758   1.405       .  A
C753        H760   1.083       .  S
C754        C755   1.411       .  A
C755        C756   1.398       .  A
C755       Br762   1.921       .  S
C756        C757   1.404       .  A
C756        H761   1.084   1_655  S
C757        C758   1.409       .  A
C758       Br759   1.916       .  S
C763        C764   1.398       .  A
C763        C768   1.392       .  A
C763        H770   1.084       .  S
C764        C765   1.408       .  A
C765        C766   1.404       .  A
C765       Br772   1.920       .  S
C766        C767   1.407       .  A
C766        H771   1.083       .  S
C767        C768   1.412       .  A
C768       Br769   1.922       .  S
C773        C774   1.404       .  A
C773        C778   1.396       .  A
C773        H780   1.084       .  S
C774        C775   1.410       .  A
C775        C776   1.396       .  A
C775       Br782   1.920       .  S
C776        C777   1.405       .  A
C776        H781   1.084       .  S
C777        C778   1.411       .  A
C778       Br779   1.920       .  S
C783        C784   1.402       .  A
C783        C788   1.400       .  A
C783        H790   1.084       .  S
C784        C785   1.409       .  A
C785        C786   1.395       .  A
C785       Br792   1.921       .  S
C786        C787   1.403       .  A
C786        H791   1.084       .  S
C787        C788   1.415       .  A
C788       Br789   1.921       .  S
C793        C794   1.400       .  A
C793        C798   1.391       .  A
C793        H800   1.084       .  S
C794        C795   1.410       .  A
C795        C796   1.405       .  A
C795       Br802   1.919       .  S
C796        C797   1.406       .  A
C796        H801   1.083       .  S
C797        C798   1.411       .  A
C798       Br799   1.923       .  S
C803        C804   1.408       .  A
C803        C808   1.407       .  A
C803        H810   1.083       .  S
C804        C805   1.410       .  A
C805        C806   1.397       .  A
C805       Br812   1.921       .  S
C806        C807   1.403       .  A
C806        H811   1.084       .  S
C807        C808   1.407       .  A
C808       Br809   1.917       .  S
C813        C814   1.408       .  A
C813        C818   1.407       .  A
C813        H820   1.083       .  S
C814        C815   1.410       .  A
C815        C816   1.398       .  A
C815       Br822   1.920   1_565  S
C816        C817   1.401       .  A
C816        H821   1.084   1_565  S
C817        C818   1.409       .  A
C818       Br819   1.917       .  S
C823        C824   1.406       .  A
C823        C828   1.397       .  A
C823        H830   1.084       .  S
C824        C825   1.410       .  A
C825        C826   1.401       .  A
C825       Br832   1.920       .  S
C826        C827   1.409       .  A
C826        H831   1.083       .  S
C827        C828   1.412       .  A
C828       Br829   1.921       .  S
C833        C834   1.408       .  A
C833        C838   1.398       .  A
C833        H840   1.083       .  S
C834        C835   1.413       .  A
C835        C836   1.404   1_545  A
C835       Br842   1.921       .  S
C836        C837   1.408       .  A
C836        H841   1.084       .  S
C837        C838   1.408   1_565  A
C838       Br839   1.919       .  S
C843        C844   1.401       .  A
C843        C848   1.398       .  A
C843        H850   1.084       .  S
C844        C845   1.407       .  A
C845        C846   1.402       .  A
C845       Br852   1.918       .  S
C846        C847   1.406       .  A
C846        H851   1.083       .  S
C847        C848   1.413       .  A
C848       Br849   1.922       .  S
C853        C854   1.405       .  A
C853        C858   1.399       .  A
C853        H860   1.084       .  S
C854        C855   1.410       .  A
C855        C856   1.398       .  A
C855       Br862   1.920       .  S
C856        C857   1.405       .  A
C856        H861   1.084       .  S
C857        C858   1.409       .  A
C858       Br859   1.917       .  S
C863        C864   1.402       .  A
C863        C868   1.405       .  A
C863        H870   1.084       .  S
C864        C865   1.405   1_565  A
C865        C866   1.395   1_545  A
C865       Br872   1.920       .  S
C866        C867   1.405       .  A
C866        H871   1.084   1_565  S
C867        C868   1.415       .  A
C868       Br869   1.919       .  S
C873        C874   1.405       .  A
C873        C878   1.396       .  A
C873        H880   1.083       .  S
C874        C875   1.419       .  A
C875        C876   1.406       .  A
C875       Br882   1.920       .  S
C876        C877   1.400       .  A
C876        H881   1.084       .  S
C877        C878   1.407       .  A
C878       Br879   1.922       .  S
C883        C884   1.406       .  A
C883        C888   1.396       .  A
C883        H890   1.083       .  S
C884        C885   1.419       .  A
C885        C886   1.403       .  A
C885       Br892   1.920       .  S
C886        C887   1.399       .  A
C886        H891   1.084       .  S
C887        C888   1.407       .  A
C888       Br889   1.921   1_565  S
C893        C894   1.406       .  A
C893        C898   1.403       .  A
C893        H900   1.084       .  S
C894        C895   1.408       .  A
C895        C896   1.398       .  A
C895       Br902   1.920       .  S
C896        C897   1.407       .  A
C896        H901   1.084       .  S
C897        C898   1.411       .  A
C898       Br899   1.918       .  S
C903        C904   1.402       .  A
C903        C908   1.396       .  A
C903        H910   1.084       .  S
C904        C905   1.417       .  A
C905        C906   1.402       .  A
C905       Br912   1.922   1_556  S
C906        C907   1.402       .  A
C906        H911   1.084       .  S
C907        C908   1.414       .  A
C908       Br909   1.922       .  S
C913        C914   1.399       .  A
C913        C918   1.397       .  A
C913        H920   1.084       .  S
C914        C915   1.405       .  A
C915        C916   1.402       .  A
C915       Br922   1.918       .  S
C916        C917   1.408       .  A
C916        H921   1.083       .  S
C917        C918   1.411       .  A
C918       Br919   1.919       .  S
C923        C924   1.398       .  A
C923        C928   1.399       .  A
C923        H930   1.084       .  S
C924        C925   1.408       .  A
C925        C926   1.398       .  A
C925       Br932   1.919       .  S
C926        C927   1.404       .  A
C926        H931   1.083       .  S
C927        C928   1.419       .  A
C928       Br929   1.923       .  S
C933        C934   1.408       .  A
C933        C938   1.405       .  A
C933        H940   1.083       .  S
C934        C935   1.412       .  A
C935        C936   1.396       .  A
C935       Br942   1.923       .  S
C936        C937   1.401       .  A
C936        H941   1.084       .  S
C937        C938   1.407       .  A
C938       Br939   1.916       .  S
C943        C944   1.404       .  A
C943        C948   1.398       .  A
C943        H950   1.084       .  S
C944        C945   1.414       .  A
C945        C946   1.406       .  A
C945       Br952   1.920       .  S
C946        C947   1.403       .  A
C946        H951   1.083       .  S
C947        C948   1.406       .  A
C948       Br949   1.918       .  S
C953        C954   1.401       .  A
C953        C958   1.395       .  A
C953        H960   1.084       .  S
C954        C955   1.408       .  A
C955        C956   1.404       .  A
C955       Br962   1.919       .  S
C956        C957   1.408       .  A
C956        H961   1.083       .  S
C957        C958   1.414       .  A
C958       Br959   1.923       .  S
C963        C964   1.405       .  A
C963        C968   1.397       .  A
C963        H970   1.084       .  S
C964        C965   1.412       .  A
C965        C966   1.400       .  A
C965       Br972   1.920       .  S
C966        C967   1.401       .  A
C966        H971   1.084       .  S
C967        C968   1.403       .  A
C968       Br969   1.918       .  S
C973        C974   1.402       .  A
C973        C978   1.396       .  A
C973        H980   1.083       .  S
C974        C975   1.418       .  A
C975        C976   1.396       .  A
C975       Br982   1.924       .  S
C976        C977   1.398       .  A
C976        H981   1.084       .  S
C977        C978   1.414       .  A
C978       Br979   1.923       .  S
C983        C984   1.401       .  A
C983        C988   1.398       .  A
C983        H990   1.084       .  S
C984        C985   1.405       .  A
C985        C986   1.403       .  A
C985       Br992   1.918       .  S
C986        C987   1.409       .  A
C986        H991   1.083       .  S
C987        C988   1.415       .  A
C988       Br989   1.921       .  S
C993        C994   1.406       .  A
C993        C998   1.396       .  A
C993       H1000   1.084       .  S
C994        C995   1.412       .  A
C995        C996   1.407       .  A
C995      Br1002   1.919       .  S
C996        C997   1.408       .  A
C996       H1001   1.083       .  S
C997        C998   1.410       .  A
C998       Br999   1.922       .  S
C1003      C1004   1.401       .  A
C1003      C1008   1.402       .  A
C1003      H1010   1.084       .  S
C1004      C1005   1.406       .  A
C1005      C1006   1.395       .  A
C1005     Br1012   1.920       .  S
C1006      C1007   1.405       .  A
C1006      H1011   1.084       .  S
C1007      C1008   1.415       .  A
C1008     Br1009   1.919       .  S
C1013      C1014   1.409       .  A
C1013      C1018   1.397       .  A
C1013      H1020   1.083       .  S
C1014      C1015   1.414       .  A
C1015      C1016   1.405       .  A
C1015     Br1022   1.920       .  S
C1016      C1017   1.405       .  A
C1016      H1021   1.084       .  S
C1017      C1018   1.406       .  A
C1018     Br1019   1.922       .  S
C1023      C1024   1.400       .  A
C1023      C1028   1.401       .  A
C1023      H1030   1.084       .  S
C1024      C1025   1.406       .  A
C1025      C1026   1.396       .  A
C1025     Br1032   1.920       .  S
C1026      C1027   1.404       .  A
C1026      H1031   1.084       .  S
C1027      C1028   1.414       .  A
C1028     Br1029   1.921       .  S
