geometry optimzed in LAMMPS
_audit_creation_date              2020-12-01 
_audit_creation_method            'lammps2cif' 
_symmetry_space_group_name_H-M    'P1' 
_symmetry_Int_Tables_number       1 
_symmetry_cell_setting            triclinic 
loop_ 
_symmetry_equiv_pos_as_xyz 
  x,y,z 
_cell_length_a                    25.59154287 
_cell_length_b                    24.90455550078593 
_cell_length_c                    25.5475242680058 
_cell_angle_alpha                 90.45112552066773 
_cell_angle_beta                  90.21174034106532 
_cell_angle_gamma                 89.32192288719827 
loop_ 
_atom_site_label 
_atom_site_type_symbol 
_atom_site_fract_x 
_atom_site_fract_y 
_atom_site_fract_z 
_atom_site_charge 
O1          O  0.08531912  0.71298350  0.17938022    -0.81000
C2          C  0.14141147  0.55024439  0.32016733     0.98400
O3          O  0.10549010  0.54912493  0.28656553    -0.70100
O4          O  0.04893644  0.63223618  0.30597961    -0.73700
Al5        Al  0.07686830  0.60497603  0.24479641     1.49000
C6          C  0.03637223  0.68022717  0.31529022     0.93600
O7          O  0.15362112  0.73299619  0.30828347    -0.79900
O8          O  0.22138877  0.65485321  0.19651448    -0.73500
Al9        Al  0.11962241  0.71876897  0.24513872     1.90100
O10         O  0.22072083  0.67740883  0.30197437    -0.72500
O11         O  0.18280406  0.55903005  0.20945058    -0.72400
O12         O  0.17809597  0.58312494  0.31681959    -0.78000
O13         O  0.10167894  0.57422246  0.18347146    -0.76200
O14         O  0.13120308  0.64851695  0.24875640    -1.12400
O15         O  0.03247174  0.64949577  0.20208813    -0.71600
C16         C  0.04616550  0.68469261  0.17004362     0.99200
C17         C  0.19812619  0.71769467  0.32305601     0.95600
Al18       Al  0.19557984  0.62084399  0.25576254     1.55600
O19         O  0.05478975  0.71785975  0.28744423    -0.76200
C20         C  0.14485791  0.55025588  0.17826396     0.99700
C21         C  0.21590311  0.70300080  0.18351318     0.94600
O22         O  0.18130847  0.73300670  0.20445939    -0.81500
O23         O  0.41858809  0.80353578  0.44265665    -0.81000
C24         C  0.29274146  0.94949615  0.06377742     0.98400
O25         O  0.32897193  0.95883198  0.03198558    -0.70100
O26         O  0.40129889  0.89324962  0.06385811    -0.73700
Al27       Al  0.38539224  0.91188536  0.50662143     1.49000
C28         C  0.42203219  0.84941673  0.07695819     0.93600
O29         O  0.31510308  0.77528569  0.06466061    -0.79900
O30         O  0.27147275  0.81976106  0.43621708    -0.73500
Al31       Al  0.35685496  0.78830224  0.00387264     1.90100
O32         O  0.24197138  0.81051637  0.03477220    -0.72500
O33         O  0.27737789  0.92475166  0.45283308    -0.72400
O34         O  0.26234137  0.91075623  0.05550360    -0.78000
O35         O  0.36139736  0.93780263  0.44274441    -0.76200
O36         O  0.34548514  0.85405044  0.50250320    -1.12400
O37         O  0.44352271  0.88291702  0.46889941    -0.71600
C38         C  0.44788145  0.84359841  0.43790109     0.99200
C39         C  0.26638976  0.78375128  0.06853255     0.95600
Al40       Al  0.27595913  0.86213065  0.49804225     1.55600
O41         O  0.41319190  0.80656023  0.05153914    -0.76200
C42         C  0.31483733  0.94675976  0.42917233     0.99700
C43         C  0.29111296  0.77378918  0.42756049     0.94600
O44         O  0.32838544  0.75614996  0.45501617    -0.81500
O45         O  0.89513711  0.70979413  0.06009491    -0.81000
C46         C  0.80638547  0.54631298  0.42971467     0.98400
O47         O  0.84483391  0.53931215  0.46032419    -0.70100
O48         O  0.92120464  0.60467942  0.44010804    -0.73700
Al49       Al  0.90549868  0.59117197  0.01382875     1.49000
C50         C  0.94078769  0.64874726  0.42709427     0.93600
O51         O  0.83478479  0.72566676  0.42985352    -0.79900
O52         O  0.76268157  0.64423044  0.06534893    -0.73500
Al53       Al  0.86871217  0.71025095  0.49334769     1.90100
O54         O  0.75837575  0.69153571  0.44739861    -0.72500
O55         O  0.80692103  0.54930236  0.06390135    -0.72400
O56         O  0.77792225  0.58778160  0.43391552    -0.78000
O57         O  0.88776084  0.57286957  0.08251105    -0.76200
O58         O  0.84815106  0.63164785  0.00700756    -1.12400
O59         O  0.95021883  0.64499786  0.04298598    -0.71600
C60         C  0.93665368  0.68484577  0.07048419     0.99200
C61         C  0.78701447  0.72137057  0.41985121     0.95600
Al62       Al  0.78603415  0.60054014  0.00999407     1.55600
O63         O  0.92874004  0.69175298  0.45092468    -0.76200
C64         C  0.84654392  0.54861400  0.09423276     0.99700
C65         C  0.76576272  0.69417759  0.07141799     0.94600
O66         O  0.79576019  0.72174507  0.04289512    -0.81500
O67         O  0.54981841  0.78736504  0.28359373    -0.81000
C68         C  0.64429790  0.95206114  0.17587560     0.98400
O69         O  0.59929937  0.93457898  0.18547295    -0.70100
O70         O  0.52853832  0.86227800  0.20298708    -0.73700
Al71       Al  0.57547964  0.90126015  0.24658896     1.49000
C72         C  0.53500581  0.82347696  0.17161259     0.93600
O73         O  0.67107068  0.76486418  0.19535286    -0.79900
O74         O  0.71724366  0.81716598  0.29402290    -0.73500
Al75       Al  0.61226094  0.78361811  0.23955991     1.90100
O76         O  0.71422655  0.83975051  0.18731170    -0.72500
O77         O  0.68296909  0.91527441  0.31235006    -0.72400
O78         O  0.68318911  0.93866381  0.20426189    -0.78000
O79         O  0.60833491  0.95233980  0.29067447    -0.76200
O80         O  0.62751369  0.85341316  0.24509050    -1.12400
O81         O  0.54723249  0.87201477  0.30809445    -0.71600
C82         C  0.53337549  0.82404872  0.31439566     0.99200
C83         C  0.70561400  0.79239641  0.17288387     0.95600
Al84       Al  0.69382607  0.87571753  0.24920973     1.55600
O85         O  0.57359431  0.79226761  0.17657006    -0.76200
C86         C  0.64715078  0.94916972  0.32073509     0.99700
C87         C  0.69296336  0.77936476  0.31606997     0.94600
O88         O  0.64816814  0.76621240  0.30106310    -0.81500
O89         O  0.08975132  0.28362087  0.06260521    -0.81000
C90         C  0.17656619  0.45240985  0.42704252     0.98400
O91         O  0.14174918  0.45979127  0.46140077    -0.70100
O92         O  0.06963337  0.39035827  0.44502324    -0.73700
Al93       Al  0.09939801  0.40138899  0.01513551     1.49000
C94         C  0.05165532  0.34527529  0.43287562     0.93600
O95         O  0.15959137  0.27123804  0.43415560    -0.79900
O96         O  0.24021633  0.32786245  0.04336496    -0.73500
Al97       Al  0.12958243  0.28882638  0.49842967     1.90100
O98         O  0.23449766  0.31181175  0.44324940    -0.72500
O99         O  0.21085754  0.42863336  0.04511374    -0.72400
O100        O  0.20664999  0.41232683  0.42857508    -0.78000
O101        O  0.13217815  0.41832196  0.07851180    -0.76200
O102        O  0.14745980  0.35131418  0.00155083    -1.12400
O103        O  0.05123629  0.36031186  0.05240595    -0.71600
C104        C  0.05489562  0.31642526  0.07552047     0.99200
C105        C  0.20586126  0.27765624  0.42040078     0.95600
Al106      Al  0.21329162  0.37247515  0.99096596     1.55600
O107        O  0.06580175  0.30309578  0.45729078    -0.76200
C108        C  0.17725961  0.43857147  0.08061470     0.99700
C109        C  0.22647728  0.28325998  0.06107305     0.94600
O110        O  0.18609366  0.25950887  0.04386871    -0.81500
O111        O  0.30226266  0.05513222  0.20414239    -0.81000
C112        C  0.45494152  0.16760312  0.31020589     0.98400
O113        O  0.44133135  0.11971703  0.30199339    -0.70100
O114        O  0.38076091  0.03867686  0.28190392    -0.73700
Al115      Al  0.41107592  0.09289951  0.24058080     1.49000
C116        C  0.34404839  0.03929075  0.31434881     0.93600
O117        O  0.27196372  0.17351736  0.29925684    -0.79900
O118        O  0.31275024  0.22712367  0.19659140    -0.73500
Al119      Al  0.29317088  0.11634556  0.25174635     1.90100
O120        O  0.33957049  0.22696507  0.30149384    -0.72500
O121        O  0.40879700  0.20276793  0.17498077    -0.72400
O122        O  0.43660036  0.20553930  0.28223341    -0.78000
O123        O  0.45636437  0.13397866  0.19805288    -0.76200
O124        O  0.35863638  0.13996178  0.24403137    -1.12400
O125        O  0.38433947  0.06310940  0.17923179    -0.71600
C126        C  0.33927687  0.04432628  0.17253582     0.99200
C127        C  0.29636852  0.21287248  0.31898766     0.95600
Al128      Al  0.37292510  0.20980008  0.23929508     1.55600
O129        O  0.30904875  0.07509789  0.31243891    -0.76200
C130        C  0.44764055  0.17270233  0.16773863     0.99700
C131        C  0.27677891  0.19901526  0.17653648     0.94600
O132        O  0.26775273  0.15279828  0.19295272    -0.81500
O133        O  0.56357665  0.18406751  0.44479106    -0.81000
C134        C  0.68633081  0.04930600  0.06616626     0.98400
O135        O  0.65185248  0.03757378  0.03286169    -0.70100
O136        O  0.57716210  0.10299060  0.05645677    -0.73700
Al137      Al  0.60196517  0.08169646  0.50320900     1.49000
C138        C  0.55485171  0.14667036  0.06742549     0.93600
O139        O  0.65466196  0.22795075  0.05507904    -0.79900
O140        O  0.73404534  0.17873577  0.45459193    -0.73500
Al141      Al  0.61850623  0.20610327  0.99310354     1.90100
O142        O  0.73145353  0.19148784  0.03932530    -0.72500
O143        O  0.71400272  0.07633796  0.44420060    -0.72400
O144        O  0.71492930  0.08951057  0.05863311    -0.78000
O145        O  0.64528497  0.03089193  0.46739459    -0.76200
O146        O  0.64588250  0.13636491  0.49965969    -1.12400
O147        O  0.57261977  0.09663339  0.43763009    -0.71600
C148        C  0.55322796  0.14016889  0.42182331     0.99200
C149        C  0.70244886  0.22238086  0.06629139     0.95600
Al150      Al  0.71487809  0.12344137  0.50320149     1.55600
O151        O  0.56100393  0.18801230  0.03942430    -0.76200
C152        C  0.68368475  0.03747552  0.43744023     0.99700
C153        C  0.70724115  0.20904115  0.42510290     0.94600
O154        O  0.65915335  0.21565432  0.43186124    -0.81500
O155        O  0.94194223  0.29523605  0.20230187    -0.81000
C156        C  0.83011420  0.42626545  0.33912679     0.98400
O157        O  0.87623152  0.41247193  0.32885373    -0.70100
O158        O  0.95540859  0.35575364  0.29816301    -0.73700
Al159      Al  0.90168263  0.39511307  0.26240833     1.49000
C160        C  0.95506569  0.31147257  0.32196029     0.93600
O161        O  0.83067928  0.24020207  0.28647384    -0.79900
O162        O  0.77055659  0.29927479  0.20583485    -0.73500
Al163      Al  0.88337375  0.27434927  0.24545965     1.90100
O164        O  0.78076552  0.30729083  0.31360177    -0.72500
O165        O  0.79143019  0.40147085  0.19988350    -0.72400
O166        O  0.79278321  0.41271508  0.30904521    -0.78000
O167        O  0.85826755  0.44772581  0.22797050    -0.76200
O168        O  0.85807830  0.34089434  0.25490382    -1.12400
O169        O  0.93129519  0.38272516  0.19709024    -0.71600
C170        C  0.95152634  0.33969637  0.18072433     0.99200
C171        C  0.79656843  0.25928133  0.31730741     0.95600
Al172      Al  0.78938244  0.35393590  0.25704426     1.55600
O173        O  0.92358728  0.27554718  0.30839665    -0.76200
C174        C  0.82047264  0.44160653  0.19650548     0.99700
C175        C  0.79796624  0.27175885  0.17400200     0.94600
O176        O  0.84611340  0.26470768  0.18206293    -0.81500
C177        C  0.72432247  0.25179589  0.11219001    -0.15600
C178        C  0.77465989  0.24589307  0.12698924    -0.30800
H179        H  0.69824341  0.27740891  0.13504489     0.13400
H180        H  0.80044944  0.22034610  0.10370738     0.14000
C181        C  0.73124662  0.24010347  0.38337922    -0.15600
C182        C  0.77496044  0.22502472  0.35844105    -0.30800
H183        H  0.71044602  0.27630356  0.37134634     0.13400
H184        H  0.79435095  0.18724141  0.36778886     0.14000
C185        C  0.48297502  0.18195870  0.12337689    -0.15600
C186        C  0.52146463  0.14652065  0.11369240    -0.30800
H187        H  0.47574114  0.21547654  0.09727831     0.13400
H188        H  0.52681463  0.11222381  0.13933762     0.14000
C189        C  0.51685484  0.13674494  0.37706591    -0.15600
C190        C  0.49311270  0.17834323  0.35290091    -0.30800
H191        H  0.50884969  0.09613090  0.36358764     0.13400
H192        H  0.50128087  0.21940292  0.36464124     0.14000
C193        C  0.01846913  0.30471190  0.11841208    -0.15600
C194        C  0.98689457  0.34405481  0.13619347    -0.30800
H195        H  0.01904791  0.26544312  0.13661044     0.13400
H196        H  0.98825716  0.38353541  0.11838790     0.14000
C197        C  0.01375066  0.34555280  0.38933352    -0.15600
C198        C  0.99145480  0.30278370  0.36657725    -0.30800
H199        H  0.00437749  0.38524587  0.37418920     0.13400
H200        H  0.99856272  0.26261080  0.38143920     0.14000
C201        C  0.25884221  0.26077728  0.10372546    -0.15600
C202        C  0.24420824  0.21927479  0.13293044    -0.30800
H203        H  0.29515531  0.28102791  0.11301022     0.13400
H204        H  0.20826078  0.19840556  0.12361588     0.14000
C205        C  0.22581303  0.24334002  0.37766560    -0.15600
C206        C  0.27557543  0.24486696  0.36280139    -0.30800
H207        H  0.19896514  0.21614734  0.35816973     0.13400
H208        H  0.30201244  0.27277504  0.38191791     0.14000
C209        C  0.64877210  0.98749419  0.12966987    -0.14000
C210        C  0.69072599  0.01589317  0.11438603    -0.30800
H211        H  0.61322377  0.99060092  0.10637656     0.13400
H212        H  0.72609535  0.01647494  0.13795689     0.14000
C213        C  0.64738284  0.98442137  0.36698827    -0.15600
C214        C  0.69039136  0.00061872  0.39253192    -0.30800
H215        H  0.60938163  0.99964050  0.37955640     0.13400
H216        H  0.72915306  0.99036826  0.37815993     0.14000
C217        C  0.81142174  0.48032492  0.15396221    -0.15600
C218        C  0.84738100  0.51710797  0.14263262    -0.30800
H219        H  0.77785159  0.47485812  0.12839350     0.13400
H220        H  0.88182957  0.52086850  0.16736552     0.14000
C221        C  0.79621228  0.50616726  0.38764402    -0.15600
C222        C  0.82276771  0.45926721  0.38668065    -0.30800
H223        H  0.77115035  0.51727792  0.35497241     0.13400
H224        H  0.84915219  0.44997901  0.41888368     0.14000
C225        C  0.76536927  0.75296570  0.37580766    -0.15600
C226        C  0.71561440  0.74882261  0.36021277    -0.30800
H227        H  0.79127617  0.77996990  0.35545208     0.13400
H228        H  0.69020896  0.72087211  0.38000649     0.14000
C229        C  0.73283233  0.71884734  0.11287168    -0.15600
C230        C  0.73738191  0.76980491  0.12933900    -0.30800
H231        H  0.70490286  0.69301957  0.13198210     0.13400
H232        H  0.76596013  0.79554731  0.11112829     0.14000
C233        C  0.28931209  0.98343192  0.11153507    -0.15600
C234        C  0.33275616  0.00946797  0.12655113    -0.30800
H235        H  0.25404197  0.98481157  0.13500909     0.13400
H236        H  0.36802190  0.00483382  0.10321480     0.14000
C237        C  0.30532300  0.98489867  0.38601988    -0.15600
C238        C  0.34549403  0.99817385  0.35511376    -0.30800
H239        H  0.26681049  0.00278215  0.38046616     0.13400
H240        H  0.38286705  0.97745739  0.35973344     0.14000
C241        C  0.49692001  0.81513374  0.12893659    -0.15600
C242        C  0.45757422  0.85045839  0.12198547    -0.30800
H243        H  0.50249759  0.78172737  0.10184947     0.13400
H244        H  0.45376338  0.88497504  0.14806665     0.14000
C245        C  0.48716424  0.84802484  0.39572743    -0.15600
C246        C  0.49667924  0.81145294  0.35764746    -0.30800
H247        H  0.50827769  0.88564481  0.39510733     0.13400
H248        H  0.47714887  0.77298619  0.35785000     0.14000
C249        C  0.14653823  0.50990644  0.13637897    -0.15600
C250        C  0.18724241  0.47881871  0.12204970    -0.30800
H251        H  0.10950714  0.50501015  0.11583819     0.13400
H252        H  0.22595944  0.48424818  0.13860812     0.14000
C253        C  0.13890550  0.51310312  0.36379183    -0.15600
C254        C  0.18175620  0.49093257  0.38469175    -0.30800
H255        H  0.10045296  0.50122651  0.37715890     0.13400
H256        H  0.22007124  0.49828608  0.36817681     0.14000
C257        C  0.96728612  0.69908376  0.11730824    -0.15600
C258        C  0.01867716  0.68898733  0.11979588    -0.30800
H259        H  0.94647133  0.71296409  0.15195564     0.13400
H260        H  0.04005846  0.67754401  0.08469986     0.14000
C261        C  0.99889831  0.69016648  0.35885202    -0.15600
C262        C  0.97890839  0.64742022  0.38404934    -0.30800
H263        H  0.98757982  0.73087735  0.36971776     0.13400
H264        H  0.99010870  0.60710054  0.37155532     0.14000
C265        C  0.25075003  0.72356608  0.14287165    -0.15600
C266        C  0.23563814  0.76428272  0.11269044    -0.30800
H267        H  0.28723618  0.70234802  0.13488062     0.13400
H268        H  0.19733595  0.78264154  0.11872256     0.14000
C269        C  0.22285032  0.74988548  0.36464891    -0.15600
C270        C  0.26984405  0.73923046  0.38552272    -0.30800
H271        H  0.20073326  0.78461179  0.37870659     0.13400
H272        H  0.29186899  0.70381747  0.37318244     0.14000
O273        O  0.04704778  0.68468019  0.69833766    -0.81000
C274        C  0.17172692  0.55601757  0.82839575     0.98400
O275        O  0.12490372  0.57237313  0.82642515    -0.70100
O276        O  0.04018971  0.62779558  0.80281601    -0.73700
Al277      Al  0.09038444  0.58764206  0.76275614     1.49000
C278        C  0.03817227  0.67498267  0.82103719     0.93600
O279        O  0.16150857  0.74234678  0.77756783    -0.79900
O280        O  0.21704355  0.68275955  0.69461385    -0.73500
Al281      Al  0.10663823  0.70772548  0.73899623     1.90100
O282        O  0.21490252  0.67650751  0.80132406    -0.72500
O283        O  0.19326181  0.57912855  0.68746494    -0.72400
O284        O  0.20408375  0.57063300  0.79439666    -0.78000
O285        O  0.13009225  0.53472340  0.72530204    -0.76200
O286        O  0.13263356  0.64165825  0.74874826    -1.12400
O287        O  0.05227719  0.59654926  0.70064262    -0.71600
C288        C  0.03384895  0.63890136  0.68114944     0.99200
C289        C  0.19809054  0.72432160  0.80624924     0.95600
Al290      Al  0.20155384  0.62866883  0.74480560     1.55600
O291        O  0.06819715  0.71004580  0.80334346    -0.76200
C292        C  0.16428048  0.53837054  0.69003670     0.99700
C293        C  0.18885159  0.71100553  0.66485148     0.94600
O294        O  0.14077613  0.71647639  0.67366840    -0.81500
O295        O  0.40143350  0.79425489  0.94326792    -0.81000
C296        C  0.29807041  0.94554848  0.57175297     0.98400
O297        O  0.33810819  0.95594102  0.54545916    -0.70100
O298        O  0.41299736  0.89158898  0.57103616    -0.73700
Al299      Al  0.37460039  0.90974539  0.99761985     1.49000
C300        C  0.43596151  0.84813309  0.58125257     0.93600
O301        O  0.33687584  0.76630977  0.56167928    -0.79900
O302        O  0.25757468  0.82515528  0.93060185    -0.73500
Al303      Al  0.37598978  0.78882994  0.50284359     1.90100
O304        O  0.26046229  0.80198351  0.54163902    -0.72500
O305        O  0.26760809  0.92929836  0.94816912    -0.72400
O306        O  0.27088679  0.90520138  0.56052841    -0.78000
O307        O  0.35167316  0.93134746  0.93190809    -0.76200
O308        O  0.33150689  0.85490266  0.99775081    -1.12400
O309        O  0.43047291  0.87433444  0.96270236    -0.71600
C310        C  0.43239482  0.83244412  0.93498775     0.99200
C311        C  0.28825679  0.77055669  0.56903890     0.95600
Al312      Al  0.26282463  0.86774380  0.99244214     1.55600
O313        O  0.43067141  0.80718347  0.55213743    -0.76200
C314        C  0.30566010  0.94700554  0.92266763     0.99700
C315        C  0.27356687  0.77707624  0.92569286     0.94600
O316        O  0.30623633  0.75702079  0.95755370    -0.81500
O317        O  0.90619599  0.70395098  0.55678084    -0.81000
C318        C  0.83990381  0.52007754  0.95432290     0.98400
O319        O  0.87705487  0.52613125  0.98615396    -0.70100
O320        O  0.92625848  0.60649707  0.94594868    -0.73700
Al321      Al  0.88610352  0.58749280  0.50220076     1.49000
C322        C  0.93400183  0.65229794  0.92732737     0.93600
O323        O  0.81299260  0.70355555  0.93680169    -0.79900
O324        O  0.76295178  0.67634690  0.55465755    -0.73500
Al325      Al  0.85456447  0.70196566  0.99807459     1.90100
O326        O  0.75286297  0.64571574  0.95827635    -0.72500
O327        O  0.77391144  0.57060200  0.54183495    -0.72400
O328        O  0.80203347  0.55274721  0.95395021    -0.78000
O329        O  0.85599021  0.56389024  0.56524295    -0.76200
O330        O  0.84297074  0.64356934  0.49667886    -1.12400
O331        O  0.93687350  0.62236900  0.54535885    -0.71600
C332        C  0.93660417  0.66652564  0.56998160     0.99200
C333        C  0.76891683  0.68281238  0.92909762     0.95600
Al334      Al  0.77404123  0.63276321  0.49469140     1.55600
O335        O  0.91566893  0.69448627  0.94998148    -0.76200
C336        C  0.80898571  0.55118622  0.57170169     0.99700
C337        C  0.77885549  0.72355248  0.56257654     0.94600
O338        O  0.81442287  0.74313752  0.53466642    -0.81500
O339        O  0.57458853  0.77137253  0.82136397    -0.81000
C340        C  0.64437473  0.94411514  0.69046273     0.98400
O341        O  0.60728076  0.94182226  0.72234088    -0.70100
O342        O  0.54752942  0.86111471  0.69954101    -0.73700
Al343      Al  0.57737093  0.88519566  0.76159145     1.49000
C344        C  0.53508124  0.81361078  0.68795158     0.93600
O345        O  0.65209545  0.75101576  0.69727959    -0.79900
O346        O  0.72155736  0.81960128  0.80505234    -0.73500
Al347      Al  0.61476089  0.76731995  0.75830503     1.90100
O348        O  0.71557516  0.80948707  0.69773327    -0.72500
O349        O  0.68656502  0.91940481  0.80101941    -0.72400
O350        O  0.67992215  0.90876692  0.69144631    -0.78000
O351        O  0.60391064  0.91204444  0.82421462    -0.76200
O352        O  0.62958693  0.83774145  0.75631970    -1.12400
O353        O  0.53082740  0.84370336  0.80215389    -0.71600
C354        C  0.53671048  0.80264250  0.82987509     0.99200
C355        C  0.69366106  0.76860320  0.67846803     0.95600
Al356      Al  0.69521324  0.86191651  0.74945208     1.55600
O357        O  0.55380604  0.77389115  0.71296815    -0.76200
C358        C  0.64899711  0.93027018  0.83187465     0.99700
C359        C  0.71107366  0.77320403  0.82082332     0.94600
O360        O  0.67247384  0.74796747  0.80260271    -0.81500
O361        O  0.09556947  0.29591891  0.56365388    -0.81000
C362        C  0.16157496  0.45947964  0.94300319     0.98400
O363        O  0.13150775  0.45945858  0.98149246    -0.70100
O364        O  0.06506275  0.38701107  0.95264903    -0.73700
Al365      Al  0.10583584  0.41000767  0.50495070     1.49000
C366        C  0.05135920  0.34234030  0.93392872     0.93600
O367        O  0.16412201  0.26550644  0.93809193    -0.79900
O368        O  0.23925339  0.33396678  0.54770949    -0.73500
Al369      Al  0.12860000  0.28251284  0.99950626     1.90100
O370        O  0.22981933  0.32060101  0.93679358    -0.72500
O371        O  0.21849688  0.43593146  0.53446971    -0.72400
O372        O  0.19361481  0.42118909  0.93595973    -0.78000
O373        O  0.13876699  0.43438581  0.56573105    -0.76200
O374        O  0.15152556  0.35657667  0.49745207    -1.12400
O375        O  0.05801673  0.37350473  0.54959197    -0.71600
C376        C  0.06162947  0.33058246  0.57534176     0.99200
C377        C  0.20617305  0.28030426  0.91859973     0.95600
Al378      Al  0.21908971  0.37200282  0.48910597     1.55600
O379        O  0.06766230  0.29792027  0.95350663    -0.76200
C380        C  0.18501990  0.45098695  0.56824579     0.99700
C381        C  0.22837976  0.28663095  0.55922696     0.94600
O382        O  0.18976961  0.26266075  0.53835963    -0.81500
O383        O  0.29232418  0.06925557  0.69575342    -0.81000
C384        C  0.45547668  0.17703773  0.80474937     0.98400
O385        O  0.45744969  0.13156178  0.78288633    -0.70100
O386        O  0.38361099  0.07504547  0.82126770    -0.73700
Al387      Al  0.40415232  0.08786469  0.75286169     1.49000
C388        C  0.33905594  0.05889368  0.83316353     0.93600
O389        O  0.27766661  0.17258122  0.80680633    -0.79900
O390        O  0.33084420  0.21032775  0.67107883    -0.73500
Al391      Al  0.28839786  0.12145383  0.75177035     1.90100
O392        O  0.32365320  0.23925425  0.77545859    -0.72500
O393        O  0.43041195  0.18487153  0.68424868    -0.72400
O394        O  0.42098473  0.21066914  0.79101285    -0.78000
O395        O  0.42864871  0.09655079  0.68509765    -0.76200
O396        O  0.35568354  0.13886558  0.74525928    -1.12400
O397        O  0.36355759  0.03024717  0.72485732    -0.71600
C398        C  0.32544212  0.03131914  0.69348204     0.99200
C399        C  0.29117684  0.22140739  0.80788334     0.95600
Al400      Al  0.37488399  0.20582390  0.73138687     1.55600
O401        O  0.29969425  0.06826845  0.80453262    -0.76200
C402        C  0.44298840  0.13957279  0.66477299     0.99700
C403        C  0.28317101  0.19799578  0.66750294     0.94600
O404        O  0.26201380  0.16943841  0.70137880    -0.81500
O405        O  0.57803848  0.19272170  0.93019787    -0.81000
C406        C  0.67299084  0.04568430  0.57968680     0.98400
O407        O  0.62672097  0.06004986  0.56945704    -0.70100
O408        O  0.54790180  0.11959944  0.53912801    -0.73700
Al409      Al  0.60711877  0.08347755  0.99310890     1.49000
C410        C  0.54599631  0.16454742  0.56210782     0.93600
O411        O  0.67145088  0.23613803  0.53669415    -0.79900
O412        O  0.72730183  0.17207491  0.93226939    -0.73500
Al413      Al  0.62046108  0.20323804  0.49195630     1.90100
O414        O  0.72394714  0.17033675  0.56147972    -0.72500
O415        O  0.71766960  0.06706113  0.94967129    -0.72400
O416        O  0.71051864  0.06377305  0.55284804    -0.78000
O417        O  0.63441675  0.05908922  0.93013819    -0.76200
O418        O  0.64782398  0.14060920  0.99333453    -1.12400
O419        O  0.55102051  0.11360977  0.95322588    -0.71600
C420        C  0.54834870  0.15318821  0.92297429     0.99200
C421        C  0.70751302  0.21825490  0.56589726     0.95600
Al422      Al  0.71721844  0.13094819  0.99465384     1.55600
O423        O  0.57824204  0.20031762  0.55178520    -0.76200
C424        C  0.68145235  0.04588600  0.92278727     0.99700
C425        C  0.70815514  0.21790517  0.92182376     0.94600
O426        O  0.67004002  0.23680054  0.94785080    -0.81500
O427        O  0.94462688  0.30746498  0.69864077    -0.81000
C428        C  0.82374522  0.43415569  0.83210078     0.98400
O429        O  0.87064979  0.41919293  0.82711312    -0.70100
O430        O  0.95381385  0.36462548  0.80046904    -0.73700
Al431      Al  0.90251257  0.40512439  0.76255934     1.49000
C432        C  0.95366706  0.31866690  0.82074578     0.93600
O433        O  0.82936827  0.25161446  0.77905337    -0.79900
O434        O  0.77487383  0.31276029  0.69210260    -0.73500
Al435      Al  0.88448936  0.28510969  0.73984932     1.90100
O436        O  0.77488472  0.31756718  0.79979982    -0.72500
O437        O  0.79974255  0.41712265  0.68783531    -0.72400
O438        O  0.79017483  0.42279142  0.79730036    -0.78000
O439        O  0.86280324  0.46002197  0.72769924    -0.76200
O440        O  0.85912591  0.35169176  0.74872668    -1.12400
O441        O  0.93772490  0.39573468  0.69940910    -0.71600
C442        C  0.95688788  0.35313468  0.68067052     0.99200
C443        C  0.79164848  0.26996237  0.80617640     0.95600
Al444      Al  0.79052369  0.36621670  0.74445823     1.55600
O445        O  0.92249491  0.28401089  0.80408879    -0.76200
C446        C  0.82965348  0.45726631  0.69110615     0.99700
C447        C  0.80272501  0.28111971  0.66487721     0.94600
O448        O  0.85031978  0.27439330  0.67520953    -0.81500
C449        C  0.73018354  0.25448638  0.60578332    -0.15600
C450        C  0.77978657  0.24860956  0.62217696    -0.30800
H451        H  0.70608239  0.28723186  0.62095692     0.13400
H452        H  0.80430275  0.21741757  0.60467192     0.14000
C453        C  0.73009115  0.25146011  0.87931759    -0.15600
C454        C  0.76815392  0.23462415  0.84645559    -0.30800
H455        H  0.71435770  0.29194903  0.87533810     0.13400
H456        H  0.78386025  0.19410295  0.85017810     0.14000
C457        C  0.47635224  0.13492956  0.61879420    -0.15600
C458        C  0.50644069  0.17484959  0.60241033    -0.30800
H459        H  0.47972993  0.09532936  0.60078985     0.13400
H460        H  0.50477742  0.21400552  0.62144855     0.14000
C461        C  0.51121353  0.14899993  0.87826078    -0.15600
C462        C  0.49320448  0.18930263  0.84783100    -0.30800
H463        H  0.49667173  0.10880507  0.87068608     0.13400
H464        H  0.50362091  0.23058119  0.85638683     0.14000
C465        C  0.02546846  0.32032303  0.61904442    -0.15600
C466        C  0.99363888  0.35927050  0.63699752    -0.30800
H467        H  0.02563960  0.28098331  0.63710485     0.13400
H468        H  0.99542167  0.39897261  0.61972986     0.14000
C469        C  0.01604734  0.34610117  0.88820090    -0.15600
C470        C  0.98985933  0.30611051  0.86486106    -0.30800
H471        H  0.01022052  0.38665380  0.87357910     0.13400
H472        H  0.99321602  0.26533745  0.87935786     0.14000
C473        C  0.26330260  0.26066873  0.59723593    -0.15600
C474        C  0.25011911  0.21753801  0.62434142    -0.30800
H475        H  0.29984452  0.28068413  0.60621304     0.13400
H476        H  0.21227012  0.19919774  0.61795503     0.14000
C477        C  0.22739799  0.24680192  0.87558644    -0.15600
C478        C  0.26981703  0.25890005  0.84783226    -0.30800
H479        H  0.20735128  0.20943928  0.86720652     0.13400
H480        H  0.28919709  0.29695643  0.85438027     0.14000
C481        C  0.64237648  0.98799575  0.65136024    -0.14000
C482        C  0.68231236  0.00488790  0.62145031    -0.30800
H483        H  0.60451149  0.00775986  0.64718932     0.13400
H484        H  0.72100310  0.98716152  0.62604616     0.14000
C485        C  0.65437911  0.96638493  0.87687827    -0.15600
C486        C  0.69190817  0.00304499  0.88390397    -0.30800
H487        H  0.62099149  0.96687549  0.90318855     0.13400
H488        H  0.72674101  0.00346834  0.85979945     0.14000
C489        C  0.83092686  0.50118234  0.65188955    -0.15600
C490        C  0.79628677  0.51112306  0.61305261    -0.30800
H491        H  0.86513885  0.52657067  0.65457865     0.13400
H492        H  0.76036826  0.48850058  0.61029836     0.14000
C493        C  0.84378574  0.47587181  0.91627798    -0.15600
C494        C  0.80951087  0.46866256  0.87701556    -0.30800
H495        H  0.87942018  0.45167428  0.91764976     0.13400
H496        H  0.77334462  0.49189672  0.87545320     0.14000
C497        C  0.73489785  0.70302303  0.88623217    -0.15600
C498        C  0.74540219  0.74912177  0.86129900    -0.30800
H499        H  0.69948912  0.68124722  0.87687381     0.13400
H500        H  0.77998507  0.77155905  0.87227543     0.14000
C501        C  0.75636995  0.75653748  0.60537576    -0.15600
C502        C  0.71635348  0.73879991  0.63390695    -0.30800
H503        H  0.77327023  0.79546054  0.61391445     0.13400
H504        H  0.69892840  0.70038114  0.62419303     0.14000
C505        C  0.28602068  0.98049670  0.61740341    -0.15600
C506        C  0.32449234  0.98919407  0.65236871    -0.30800
H507        H  0.24830366  0.00060206  0.62072577     0.13400
H508        H  0.36046761  0.96578381  0.64832895     0.14000
C509        C  0.29764993  0.98893967  0.88407410    -0.15600
C510        C  0.33546736  0.02492682  0.87858146    -0.30800
H511        H  0.26299988  0.98907979  0.85938176     0.13400
H512        H  0.36922902  0.02420574  0.90462796     0.14000
C513        C  0.49766591  0.80557233  0.64464716    -0.15600
C514        C  0.47068676  0.84823950  0.62677871    -0.30800
H515        H  0.49285667  0.76599651  0.62724709     0.13400
H516        H  0.47485656  0.88701835  0.64615379     0.14000
C517        C  0.46884264  0.83342947  0.89041450    -0.15600
C518        C  0.49893234  0.79255830  0.87277577    -0.30800
H519        H  0.47404908  0.87297511  0.87359855     0.13400
H520        H  0.49779929  0.75356335  0.89141200     0.14000
C521        C  0.16615563  0.49419881  0.65158293    -0.15600
C522        C  0.19789934  0.49039755  0.60990037    -0.30800
H523        H  0.13585339  0.46434082  0.65622632     0.13400
H524        H  0.22988598  0.51808744  0.60474608     0.14000
C525        C  0.18765240  0.51620430  0.86801227    -0.15600
C526        C  0.15483985  0.50422654  0.90659667    -0.30800
H527        H  0.22443266  0.49445234  0.86360337     0.13400
H528        H  0.11913504  0.52787948  0.91131059     0.14000
C529        C  0.97234804  0.67479651  0.61463194    -0.15600
C530        C  0.99700025  0.63318058  0.63719334    -0.30800
H531        H  0.97748307  0.71524434  0.62986505     0.13400
H532        H  0.99018540  0.59270464  0.62266827     0.14000
C533        C  0.00100168  0.68825926  0.86442282    -0.15600
C534        C  0.96464851  0.65244793  0.87821350    -0.30800
H535        H  0.00579836  0.72504005  0.88693783     0.13400
H536        H  0.96187751  0.61559891  0.85531193     0.14000
C537        C  0.21227647  0.73963955  0.62030582    -0.15600
C538        C  0.26403865  0.73842232  0.61076403    -0.30800
H539        H  0.18650124  0.76397452  0.59602425     0.13400
H540        H  0.28978061  0.71409599  0.63509420     0.14000
C541        C  0.22026539  0.76029372  0.84650162    -0.15600
C542        C  0.25388580  0.74249084  0.88305263    -0.30800
H543        H  0.20680122  0.80182996  0.84743626     0.13400
H544        H  0.26691150  0.70080343  0.88234131     0.14000
loop_ 
_geom_bond_atom_site_label_1 
_geom_bond_atom_site_label_2 
_geom_bond_distance 
_geom_bond_site_symmetry_2 
_ccdc_geom_bond_type 
O1           C16   1.253       .  A
O1           Al9   1.898       .  S
C2           O12   1.257       .  A
C2            O3   1.256       .  A
C2          C253   1.456       .  S
O3           Al5   1.898       .  S
O4            C6   1.255       .  A
O4           Al5   1.843       .  S
Al5          O13   1.850       .  S
Al5          O15   1.921       .  S
Al5          O14   1.776       .  S
C6           O19   1.277       .  A
C6          C261   1.489   1_455  S
O7           C17   1.254       .  A
O7           Al9   1.864       .  S
O8           C21   1.253       .  A
O8          Al18   1.867       .  S
Al9          O22   1.931       .  S
Al9          O19   1.984       .  S
Al9          O14   1.774       .  S
O10          C17   1.269       .  A
O10         Al18   1.945       .  S
O11          C20   1.274       .  A
O11         Al18   1.964       .  S
O12         Al18   1.885       .  S
O13          C20   1.257       .  A
O14         Al18   1.787       .  S
O15          C16   1.258       .  A
C16         C258   1.466       .  S
C17         C269   1.472       .  S
C20         C249   1.463       .  S
C21          O22   1.269       .  A
C21         C265   1.470       .  S
O23          C38   1.262       .  A
O23        Al303   1.928       .  S
C24          O34   1.263       .  A
C24          O25   1.260       .  A
C24         C233   1.481       .  S
O25        Al299   1.894   1_554  S
O26          C28   1.255       .  A
O26        Al299   1.869   1_554  S
Al27         O35   1.859       .  S
Al27         O37   1.907       .  S
Al27        O297   1.901       .  S
Al27        O298   1.860       .  S
Al27         O36   1.778       .  S
C28          O41   1.267       .  A
C28         C242   1.464       .  S
O29          C39   1.266       .  A
O29         Al31   1.920       .  S
O30          C43   1.263       .  A
O30         Al40   1.896       .  S
Al31         O41   1.940       .  S
Al31        O295   1.934   1_554  S
Al31        O316   1.919   1_554  S
Al31        O308   1.782   1_554  S
O32          C39   1.255       .  A
O32        Al312   1.879   1_554  S
O33          C42   1.268       .  A
O33         Al40   1.949       .  S
O34        Al312   1.928   1_554  S
O35          C42   1.258       .  A
O36         Al40   1.792       .  S
O36        Al303   1.794       .  S
O37          C38   1.259       .  A
C38         C245   1.482       .  S
C39         C266   1.467       .  S
Al40        O304   1.920       .  S
Al40        O306   1.920       .  S
C42         C237   1.478       .  S
C43          O44   1.259       .  A
C43         C270   1.477       .  S
O44        Al303   1.907       .  S
O45          C60   1.253       .  A
O45        Al325   1.901   1_554  S
C46          O56   1.261       .  A
C46          O47   1.266       .  A
C46         C221   1.487       .  S
O47        Al321   1.924       .  S
O48          C50   1.259       .  A
O48        Al321   1.881       .  S
Al49         O57   1.875       .  S
Al49         O59   1.917       .  S
Al49        O319   1.913   1_554  S
Al49        O320   1.859   1_554  S
Al49         O58   1.779       .  S
C50          O63   1.263       .  A
C50         C262   1.473       .  S
O51          C61   1.254       .  A
O51         Al53   1.877       .  S
O52          C65   1.256       .  A
O52         Al62   1.873       .  S
Al53         O63   1.932       .  S
Al53        O317   1.887       .  S
Al53        O338   1.920       .  S
Al53        O330   1.797       .  S
O54          C61   1.269       .  A
O54        Al334   1.943       .  S
O55          C64   1.274       .  A
O55         Al62   1.954       .  S
O56        Al334   1.910       .  S
O57          C64   1.260       .  A
O58         Al62   1.779       .  S
O58        Al325   1.777   1_554  S
O59          C60   1.258       .  A
C60         C257   1.471       .  S
C61         C225   1.480       .  S
Al62        O326   1.930   1_554  S
Al62        O328   1.897   1_554  S
C64         C218   1.470       .  S
C65          O66   1.271       .  A
C65         C229   1.481       .  S
O66        Al325   1.951   1_554  S
O67          C82   1.270       .  A
O67         Al75   1.959       .  S
C68          O78   1.272       .  A
C68          O69   1.262       .  A
C68         C209   1.485       .  S
O69         Al71   1.881       .  S
O70          C72   1.260       .  A
O70         Al71   1.905       .  S
Al71         O79   1.895       .  S
Al71         O81   1.887       .  S
Al71         O80   1.777       .  S
C72          O85   1.256       .  A
C72         C241   1.475       .  S
O73          C83   1.267       .  A
O73         Al75   1.936       .  S
O74          C87   1.271       .  A
O74         Al84   1.949       .  S
Al75         O88   1.869       .  S
Al75         O85   1.898       .  S
Al75         O80   1.790       .  S
O76          C83   1.255       .  A
O76         Al84   1.884       .  S
O77          C86   1.257       .  A
O77         Al84   1.903       .  S
O78         Al84   1.966       .  S
O79          C86   1.255       .  A
O80         Al84   1.794       .  S
O81          C82   1.262       .  A
C82         C246   1.490       .  S
C83         C230   1.484       .  S
C86         C213   1.467       .  S
C87          O88   1.254       .  A
C87         C226   1.478       .  S
O89         C104   1.246       .  A
O89        Al369   1.897   1_554  S
C90         O100   1.254       .  A
C90          O91   1.264       .  A
C90         C254   1.459       .  S
O91        Al365   1.917       .  S
O92          C94   1.255       .  A
O92        Al365   1.852       .  S
Al93        O101   1.868       .  S
Al93        O103   1.878       .  S
Al93        O363   1.886   1_554  S
Al93        O364   1.854   1_554  S
Al93        O102   1.774       .  S
C94         O107   1.274       .  A
C94         C197   1.473       .  S
O95         C105   1.249       .  A
O95         Al97   1.862       .  S
O96         C109   1.257       .  A
O96        Al106   1.871   1_554  S
Al97        O107   1.968       .  S
Al97        O361   1.889       .  S
Al97        O382   1.953       .  S
Al97        O374   1.785       .  S
O98         C105   1.267       .  A
O98        Al378   1.933       .  S
O99         C108   1.273       .  A
O99        Al106   1.960   1_554  S
O100       Al378   1.875       .  S
O101        C108   1.265       .  A
O102       Al106   1.793   1_554  S
O102       Al369   1.786   1_554  S
O103        C104   1.249       .  A
C104        C193   1.474       .  S
C105        C205   1.470       .  S
Al106       O370   1.930       .  S
Al106       O372   1.925       .  S
C108        C250   1.476       .  S
C109        O110   1.272       .  A
C109        C201   1.476       .  S
O110       Al369   1.938   1_554  S
O111        C126   1.272       .  A
O111       Al119   1.955       .  S
C112        O122   1.273       .  A
C112        O113   1.262       .  A
C112        C190   1.486       .  S
O113       Al115   1.869       .  S
O114        C116   1.255       .  A
O114       Al115   1.896       .  S
Al115       O123   1.904       .  S
Al115       O125   1.860       .  S
Al115       O124   1.773       .  S
C116        O129   1.258       .  A
C116        C238   1.466   1_545  S
O117        C127   1.269       .  A
O117       Al119   1.938       .  S
O118        C131   1.267       .  A
O118       Al128   1.931       .  S
Al119       O132   1.872       .  S
Al119       O129   1.907       .  S
Al119       O124   1.794       .  S
O120        C127   1.249       .  A
O120       Al128   1.851       .  S
O121        C130   1.251       .  A
O121       Al128   1.891       .  S
O122       Al128   1.963       .  S
O123        C130   1.259       .  A
O124       Al128   1.787       .  S
O125        C126   1.260       .  A
C126        C234   1.465       .  S
C127        C206   1.467       .  S
C130        C185   1.474       .  S
C131        O132   1.252       .  A
C131        C202   1.477       .  S
O133        C148   1.267       .  A
O133       Al413   1.948       .  S
C134        O144   1.264       .  A
C134        O135   1.259       .  A
C134        C210   1.495       .  S
O135       Al409   1.905   1_554  S
O136        C138   1.253       .  A
O136       Al409   1.852   1_554  S
Al137       O145   1.903       .  S
Al137       O147   1.872       .  S
Al137       O407   1.885       .  S
Al137       O408   1.901       .  S
Al137       O146   1.779       .  S
C138        O151   1.270       .  A
C138        C186   1.461       .  S
O139        C149   1.261       .  A
O139       Al141   1.910   1_554  S
O140        C153   1.265       .  A
O140       Al150   1.930       .  S
Al141       O151   1.951   1_556  S
Al141       O405   1.937       .  S
Al141       O426   1.926       .  S
Al141       O418   1.787       .  S
O142        C149   1.265       .  A
O142       Al422   1.921   1_554  S
O143        C152   1.258       .  A
O143       Al150   1.903       .  S
O144       Al422   1.941   1_554  S
O145        C152   1.261       .  A
O146       Al150   1.793       .  S
O146       Al413   1.793       .  S
O147        C148   1.256       .  A
C148        C189   1.474       .  S
C149        C177   1.489       .  S
Al150       O414   1.900       .  S
Al150       O416   1.966       .  S
C152        C214   1.473       .  S
C153        O154   1.252       .  A
C153        C181   1.463       .  S
O154       Al413   1.860       .  S
O155        C170   1.268       .  A
O155       Al163   1.942       .  S
C156        O166   1.271       .  A
C156        O157   1.253       .  A
C156        C222   1.473       .  S
O157       Al159   1.866       .  S
O158        C160   1.264       .  A
O158       Al159   1.913       .  S
Al159       O167   1.924       .  S
Al159       O169   1.857       .  S
Al159       O168   1.771       .  S
C160        O173   1.257       .  A
C160        C198   1.485       .  S
O161        C171   1.264       .  A
O161       Al163   1.921       .  S
O162        C175   1.268       .  A
O162       Al172   1.944       .  S
Al163       O176   1.892       .  S
Al163       O173   1.906       .  S
Al163       O168   1.787       .  S
O164        C171   1.262       .  A
O164       Al172   1.876       .  S
O165        C174   1.256       .  A
O165       Al172   1.888       .  S
O166       Al172   1.972       .  S
O167        C174   1.265       .  A
O168       Al172   1.785       .  S
O169        C170   1.254       .  A
C170        C194   1.462       .  S
C171        C182   1.472       .  S
C174        C217   1.474       .  S
C175        O176   1.259       .  A
C175        C178   1.485       .  S
C177        C178   1.348       .  D
C177        H179   1.086       .  S
C178        H180   1.087       .  S
C181        C182   1.338       .  D
C181        H183   1.087       .  S
C182        H184   1.086       .  S
C185        C186   1.337       .  D
C185        H187   1.086       .  S
C186        H188   1.088       .  S
C189        C190   1.348       .  D
C189        H191   1.087       .  S
C190        H192   1.086       .  S
C193        C194   1.340   1_455  D
C193        H195   1.086       .  S
C194        H196   1.088       .  S
C197        C198   1.342   1_455  D
C197        H199   1.088       .  S
C198        H200   1.086       .  S
C201        C202   1.337       .  D
C201        H203   1.087       .  S
C202        H204   1.087       .  S
C205        C206   1.331       .  D
C205        H207   1.087       .  S
C206        H208   1.088       .  S
C209        C210   1.353   1_565  D
C209        H211   1.088       .  S
C210        H212   1.085       .  S
C213        C214   1.342   1_565  D
C213        H215   1.088       .  S
C214        H216   1.086   1_545  S
C217        C218   1.340       .  D
C217        H219   1.087       .  S
C218        H220   1.087       .  S
C221        C222   1.344       .  D
C221        H223   1.086       .  S
C222        H224   1.087       .  S
C225        C226   1.338       .  D
C225        H227   1.087       .  S
C226        H228   1.087       .  S
C229        C230   1.340       .  D
C229        H231   1.087       .  S
C230        H232   1.087       .  S
C233        C234   1.347   1_565  D
C233        H235   1.086       .  S
C234        H236   1.088       .  S
C237        C238   1.345       .  D
C237        H239   1.086   1_565  S
C238        H240   1.088       .  S
C241        C242   1.341       .  D
C241        H243   1.086       .  S
C242        H244   1.087       .  S
C245        C246   1.348       .  D
C245        H247   1.087       .  S
C246        H248   1.086       .  S
C249        C250   1.341       .  D
C249        H251   1.089       .  S
C250        H252   1.085       .  S
C253        C254   1.334       .  D
C253        H255   1.088       .  S
C254        H256   1.087       .  S
C257        C258   1.337   1_655  D
C257        H259   1.087       .  S
C258        H260   1.086       .  S
C261        C262   1.355       .  D
C261        H263   1.085       .  S
C262        H264   1.087       .  S
C265        C266   1.332       .  D
C265        H267   1.087       .  S
C266        H268   1.088       .  S
C269        C270   1.338       .  D
C269        H271   1.087       .  S
C270        H272   1.086       .  S
O273        C288   1.268       .  A
O273       Al281   1.932       .  S
C274        O284   1.261       .  A
C274        O275   1.262       .  A
C274        C525   1.475       .  S
O275       Al277   1.887       .  S
O276        C278   1.261       .  A
O276       Al277   1.913       .  S
Al277       O285   1.908       .  S
Al277       O287   1.873       .  S
Al277       O286   1.775       .  S
C278        O291   1.258       .  A
C278        C533   1.496       .  S
O279        C289   1.267       .  A
O279       Al281   1.921       .  S
O280        C293   1.259       .  A
O280       Al290   1.913       .  S
Al281       O294   1.902       .  S
Al281       O291   1.919       .  S
Al281       O286   1.786       .  S
O282        C289   1.267       .  A
O282       Al290   1.897       .  S
O283        C292   1.266       .  A
O283       Al290   1.921       .  S
O284       Al290   1.930       .  S
O285        C292   1.263       .  A
O286       Al290   1.792       .  S
O287        C288   1.256       .  A
C288        C530   1.471   1_455  S
C289        C541   1.475       .  S
C292        C521   1.470       .  S
C293        O294   1.257       .  A
C293        C537   1.480       .  S
O295        C310   1.265       .  A
C296        O306   1.260       .  A
C296        O297   1.258       .  A
C296        C505   1.481       .  S
O298        C300   1.254       .  A
Al299       O307   1.858       .  S
Al299       O309   1.893       .  S
Al299       O308   1.766       .  S
C300        O313   1.266       .  A
C300        C514   1.461       .  S
O301        C311   1.262       .  A
O301       Al303   1.901       .  S
O302        C315   1.266       .  A
O302       Al312   1.901       .  S
Al303       O313   1.936       .  S
O304        C311   1.265       .  A
O305        C314   1.260       .  A
O305       Al312   1.918       .  S
O307        C314   1.258       .  A
O308       Al312   1.788       .  S
O309        C310   1.257       .  A
C310        C517   1.475       .  S
C311        C538   1.480       .  S
C314        C509   1.454       .  S
C315        O316   1.266       .  A
C315        C542   1.474       .  S
O317        C332   1.255       .  A
C318        O328   1.258       .  A
C318        O319   1.258       .  A
C318        C493   1.466       .  S
O320        C322   1.257       .  A
Al321       O329   1.889       .  S
Al321       O331   1.913       .  S
Al321       O330   1.776       .  S
C322        O335   1.281       .  A
C322        C534   1.482       .  S
O323        C333   1.260       .  A
O323       Al325   1.890       .  S
O324        C337   1.263       .  A
O324       Al334   1.891       .  S
Al325       O335   1.998       .  S
O326        C333   1.265       .  A
O327        C336   1.270       .  A
O327       Al334   1.969       .  S
O329        C336   1.259       .  A
O330       Al334   1.788       .  S
O331        C332   1.263       .  A
C332        C529   1.474       .  S
C333        C497   1.484       .  S
C336        C490   1.498       .  S
C337        O338   1.263       .  A
C337        C501   1.477       .  S
O339        C354   1.255       .  A
O339       Al347   1.916       .  S
C340        O350   1.259       .  A
C340        O341   1.255       .  A
C340        C481   1.487       .  S
O341       Al343   1.906       .  S
O342        C344   1.262       .  A
O342       Al343   1.855       .  S
Al343       O351   1.858       .  S
Al343       O353   1.901       .  S
Al343       O352   1.778       .  S
C344        O357   1.270       .  A
C344        C513   1.474       .  S
O345        C355   1.254       .  A
O345       Al347   1.871       .  S
O346        C359   1.259       .  A
O346       Al356   1.893       .  S
Al347       O360   1.917       .  S
Al347       O357   1.946       .  S
Al347       O352   1.800       .  S
O348        C355   1.264       .  A
O348       Al356   1.919       .  S
O349        C358   1.271       .  A
O349       Al356   1.949       .  S
O350       Al356   1.929       .  S
O351        C358   1.259       .  A
O352       Al356   1.800       .  S
O353        C354   1.256       .  A
C354        C518   1.489       .  S
C355        C502   1.472       .  S
C358        C485   1.461       .  S
C359        O360   1.263       .  A
C359        C498   1.480       .  S
O361        C376   1.253       .  A
C362        O372   1.263       .  A
C362        O363   1.251       .  A
C362        C526   1.465       .  S
O364        C366   1.261       .  A
Al365       O373   1.865       .  S
Al365       O375   1.918       .  S
Al365       O374   1.771       .  S
C366        O379   1.282       .  A
C366        C469   1.477       .  S
O367        C377   1.248       .  A
O367       Al369   1.860       .  S
O368        C381   1.252       .  A
O368       Al378   1.847       .  S
Al369       O379   1.985       .  S
O370        C377   1.263       .  A
O371        C380   1.270       .  A
O371       Al378   1.962       .  S
O373        C380   1.260       .  A
O374       Al378   1.790       .  S
O375        C376   1.262       .  A
C376        C465   1.479       .  S
C377        C477   1.476       .  S
C380        C522   1.481       .  S
C381        O382   1.274       .  A
C381        C473   1.466       .  S
O383        C398   1.263       .  A
O383       Al391   1.928       .  S
C384        O394   1.260       .  A
C384        O385   1.259       .  A
C384        C462   1.494       .  S
O385       Al387   1.910       .  S
O386        C388   1.253       .  A
O386       Al387   1.858       .  S
Al387       O395   1.858       .  S
Al387       O397   1.914       .  S
Al387       O396   1.776       .  S
C388        O401   1.263       .  A
C388        C510   1.445       .  S
O389        C399   1.268       .  A
O389       Al391   1.908       .  S
O390        C403   1.264       .  A
O390       Al400   1.909       .  S
Al391       O404   1.882       .  S
Al391       O401   1.916       .  S
Al391       O396   1.789       .  S
O392        C399   1.263       .  A
O392       Al400   1.911       .  S
O393        C402   1.268       .  A
O393       Al400   1.931       .  S
O394       Al400   1.927       .  S
O395        C402   1.254       .  A
O396       Al400   1.783       .  S
O397        C398   1.260       .  A
C398        C506   1.479   1_545  S
C399        C478   1.480       .  S
C402        C457   1.458       .  S
C403        O404   1.253       .  A
C403        C474   1.470       .  S
O405        C420   1.263       .  A
C406        O416   1.271       .  A
C406        O407   1.260       .  A
C406        C482   1.496       .  S
O408        C410   1.260       .  A
Al409       O417   1.851       .  S
Al409       O419   1.907       .  S
Al409       O418   1.773       .  S
C410        O423   1.252       .  A
C410        C458   1.466       .  S
O411        C421   1.264       .  A
O411       Al413   1.918       .  S
O412        C425   1.267       .  A
O412       Al422   1.921       .  S
Al413       O423   1.877       .  S
O414        C421   1.265       .  A
O415        C424   1.269       .  A
O415       Al422   1.955       .  S
O417        C424   1.258       .  A
O418       Al422   1.790       .  S
O419        C420   1.258       .  A
C420        C461   1.487       .  S
C421        C449   1.477       .  S
C424        C486   1.475       .  S
C425        O426   1.267       .  A
C425        C453   1.491       .  S
O427        C442   1.273       .  A
O427       Al435   1.957       .  S
C428        O438   1.267       .  A
C428        O429   1.259       .  A
C428        C494   1.472       .  S
O429       Al431   1.871       .  S
O430        C432   1.260       .  A
O430       Al431   1.911       .  S
Al431       O439   1.917       .  S
Al431       O441   1.863       .  S
Al431       O440   1.776       .  S
C432        O445   1.253       .  A
C432        C470   1.489       .  S
O433        C443   1.269       .  A
O433       Al435   1.934       .  S
O434        C447   1.263       .  A
O434       Al444   1.924       .  S
Al435       O448   1.884       .  S
Al435       O445   1.905       .  S
Al435       O440   1.787       .  S
O436        C443   1.268       .  A
O436       Al444   1.916       .  S
O437        C446   1.268       .  A
O437       Al444   1.948       .  S
O438       Al444   1.944       .  S
O439        C446   1.262       .  A
O440       Al444   1.791       .  S
O441        C442   1.256       .  A
C442        C466   1.472       .  S
C443        C454   1.492       .  S
C446        C489   1.490       .  S
C447        O448   1.255       .  A
C447        C450   1.477       .  S
C449        C450   1.342       .  D
C449        H451   1.087       .  S
C450        H452   1.087       .  S
C453        C454   1.349       .  D
C453        H455   1.087       .  S
C454        H456   1.087       .  S
C457        C458   1.336       .  D
C457        H459   1.088       .  S
C458        H460   1.087       .  S
C461        C462   1.350       .  D
C461        H463   1.088       .  S
C462        H464   1.085       .  S
C465        C466   1.339   1_455  D
C465        H467   1.086       .  S
C466        H468   1.087       .  S
C469        C470   1.342   1_455  D
C469        H471   1.088       .  S
C470        H472   1.086       .  S
C473        C474   1.330       .  D
C473        H475   1.088       .  S
C474        H476   1.087       .  S
C477        C478   1.337       .  D
C477        H479   1.087       .  S
C478        H480   1.086       .  S
C481        C482   1.351   1_565  D
C481        H483   1.087   1_565  S
C482        H484   1.086   1_545  S
C485        C486   1.344   1_565  D
C485        H487   1.089       .  S
C486        H488   1.086       .  S
C489        C490   1.350       .  D
C489        H491   1.088       .  S
C490        H492   1.086       .  S
C493        C494   1.342       .  D
C493        H495   1.088       .  S
C494        H496   1.086       .  S
C497        C498   1.348       .  D
C497        H499   1.086       .  S
C498        H500   1.087       .  S
C501        C502   1.340       .  D
C501        H503   1.086       .  S
C502        H504   1.087       .  S
C505        C506   1.345       .  D
C505        H507   1.085   1_565  S
C506        H508   1.089       .  S
C509        C510   1.335   1_565  D
C509        H511   1.086       .  S
C510        H512   1.089       .  S
C513        C514   1.342       .  D
C513        H515   1.086       .  S
C514        H516   1.088       .  S
C517        C518   1.345       .  D
C517        H519   1.087       .  S
C518        H520   1.086       .  S
C521        C522   1.344       .  D
C521        H523   1.088       .  S
C522        H524   1.086       .  S
C525        C526   1.335       .  D
C525        H527   1.086       .  S
C526        H528   1.088       .  S
C529        C530   1.340       .  D
C529        H531   1.086       .  S
C530        H532   1.087       .  S
C533        C534   1.346   1_455  D
C533        H535   1.086       .  S
C534        H536   1.087       .  S
C537        C538   1.348       .  D
C537        H539   1.087       .  S
C538        H540   1.087       .  S
C541        C542   1.342       .  D
C541        H543   1.087       .  S
C542        H544   1.087       .  S
