geometry optimzed in LAMMPS
_audit_creation_date              2020-11-30 
_audit_creation_method            'lammps2cif' 
_symmetry_space_group_name_H-M    'P1' 
_symmetry_Int_Tables_number       1 
_symmetry_cell_setting            triclinic 
loop_ 
_symmetry_equiv_pos_as_xyz 
  x,y,z 
_cell_length_a                    44.51047198 
_cell_length_b                    44.595652175043405 
_cell_length_c                    33.22542361131496 
_cell_angle_alpha                 89.9682170340444 
_cell_angle_beta                  89.89206541036994 
_cell_angle_gamma                 120.52003927457271 
loop_ 
_atom_site_label 
_atom_site_type_symbol 
_atom_site_fract_x 
_atom_site_fract_y 
_atom_site_fract_z 
_atom_site_charge 
Fe1        Fe  0.18151755  0.50995070  0.20496029     1.65800
Fe2        Fe  0.12711009  0.43396538  0.16124014     1.73200
Fe3        Fe  0.10604612  0.45564958  0.24963568     1.54400
O4          O  0.14903415  0.46927090  0.28978868    -0.82300
O5          O  0.07898343  0.42664960  0.15381152    -0.80600
O6          O  0.19818339  0.49240362  0.25205788    -0.84800
O7          O  0.16796045  0.53523308  0.24708629    -0.79700
O8          O  0.09554793  0.40644844  0.25613398    -0.81400
O9          O  0.14327345  0.47652019  0.12032687    -0.84200
C10         C  0.13881682  0.53058651  0.25825547     0.96600
C11         C  0.18163631  0.47898050  0.28487679     1.04000
O12         O  0.13773146  0.46573508  0.20556288    -1.13200
O13         O  0.17477701  0.43817819  0.16469246    -0.75600
O14         O  0.20549092  0.49490674  0.16287494    -0.79100
O15         O  0.11131785  0.50373985  0.24770362    -0.79800
C16         C  0.20116516  0.46571695  0.15278834     0.95500
O17         O  0.16154071  0.52459781  0.15832180    -0.77700
O18         O  0.10818389  0.38954620  0.19853804    -0.82900
C19         C  0.05736520  0.43064395  0.17421193     0.98100
C20         C  0.09698344  0.38393637  0.23479658     1.04000
O21         O  0.06259356  0.44024790  0.21115407    -0.78600
C22         C  0.14932544  0.50778195  0.12553924     1.02300
Fe23       Fe  0.99374840  0.14498910  0.37892098     1.65800
Fe24       Fe  0.01221752  0.22163692  0.41624818     1.73200
Fe25       Fe  0.96481809  0.19081371  0.33227611     1.54400
O26         O  0.99619574  0.17914072  0.29254008    -0.82300
O27         O  0.97080020  0.22776260  0.42284731    -0.80600
O28         O  0.02840347  0.16476081  0.33214046    -0.84800
O29         O  0.95595125  0.11597263  0.33685707    -0.79700
O30         O  0.00030676  0.24104645  0.32162860    -0.81400
O31         O  0.98623588  0.18056493  0.45992424    -0.84200
C32         C  0.92922104  0.11697479  0.32694494     0.96600
C33         C  0.02284766  0.17520840  0.29859178     1.04000
O34         O  0.99056638  0.18670106  0.37557487    -1.13200
O35         O  0.05705145  0.22003639  0.41404647    -0.75600
O36         O  0.03275178  0.16379471  0.42101752    -0.79100
O37         O  0.92519147  0.14100435  0.33974591    -0.79800
C38         C  0.05752089  0.19415607  0.42783299     0.95500
O39         O  0.95872367  0.12976088  0.42538454    -0.77700
O40         O  0.03626853  0.26290373  0.37394534    -0.82900
C41         C  0.94213292  0.21789394  0.40554858     0.98100
C42         C  0.02675767  0.26555444  0.33839769     1.04000
O43         O  0.93508748  0.20381485  0.37065746    -0.78600
C44         C  0.96220442  0.14807733  0.45658159     1.02300
Fe45       Fe  0.81240802  0.32521685  0.03624346     1.65800
Fe46       Fe  0.86294424  0.30174281  0.08364706     1.73200
Fe47       Fe  0.88895347  0.35066109  0.49698042     1.54400
O48         O  0.84810559  0.32195961  0.45371833    -0.82300
O49         O  0.91251751  0.33977638  0.09326015    -0.80600
O50         O  0.79764293  0.29210238  0.48876439    -0.84800
O51         O  0.82623855  0.36545798  0.49397314    -0.79700
O52         O  0.89933097  0.31171264  0.49025989    -0.81400
O53         O  0.84930440  0.33181880  0.12263920    -0.84200
C54         C  0.85564425  0.39138000  0.48595271     0.96600
C55         C  0.81615315  0.29657860  0.45739449     1.04000
O56         O  0.85587965  0.32501734  0.03937842    -1.13200
O57         O  0.81418630  0.25986110  0.07799336    -0.75600
O58         O  0.78537128  0.28711475  0.07849759    -0.79100
O59         O  0.88278082  0.39293907  0.49917187    -0.79800
C60         C  0.78870107  0.26203057  0.08967947     0.95500
O61         O  0.82998015  0.35976316  0.08290150    -0.77700
O62         O  0.87784002  0.27311004  0.04620290    -0.82900
C63         C  0.93518563  0.36689862  0.07549272     0.98100
C64         C  0.89031638  0.27901745  0.01044924     1.04000
O65         O  0.93131423  0.37371847  0.03904220    -0.78600
C66         C  0.84156251  0.35589456  0.11657767     1.02300
Fe67       Fe  0.81910340  0.48461542  0.28741606     1.65800
Fe68       Fe  0.86354622  0.57266940  0.29400418     1.73200
Fe69       Fe  0.90763873  0.52850136  0.28353475     1.54400
O70         O  0.89079535  0.49159305  0.32930747    -0.82300
O71         O  0.90174138  0.59706694  0.25128692    -0.80600
O72         O  0.83348051  0.46960566  0.33832019    -0.84800
O73         O  0.83527627  0.45740198  0.25191603    -0.79700
O74         O  0.93125694  0.56609084  0.32635932    -0.81400
O75         O  0.82665081  0.55689482  0.24838267    -0.84200
C76         C  0.86250459  0.46270882  0.23369966     0.96600
C77         C  0.86270993  0.47377554  0.34946750     1.04000
O78         O  0.86374921  0.52888644  0.28812477    -1.13200
O79         O  0.82590529  0.55492818  0.33942691    -0.75600
O80         O  0.79089591  0.50002062  0.32272643    -0.79100
O81         O  0.89137696  0.49065980  0.23866352    -0.79800
C82         C  0.79724452  0.52649559  0.34310140     0.95500
O83         O  0.80514741  0.50008946  0.23659305    -0.77700
O84         O  0.90186116  0.59355082  0.33794659    -0.82900
C85         C  0.92509398  0.59336359  0.23401438     0.98100
C86         C  0.92757732  0.58922174  0.34388561     1.04000
O87         O  0.92904700  0.56733937  0.23976283    -0.78600
C88         C  0.80900782  0.52950929  0.22724636     1.02300
Fe89       Fe  0.17215259  0.65924814  0.45634023     1.65800
Fe90       Fe  0.12956210  0.70255573  0.45534374     1.73200
Fe91       Fe  0.08560831  0.61469330  0.45883192     1.54400
O92         O  0.10522671  0.59222763  0.41838067    -0.82300
O93         O  0.10166703  0.68909413  0.00961510    -0.80600
O94         O  0.15921984  0.63443009  0.40294494    -0.84800
O95         O  0.15538938  0.61271313  0.98734578    -0.79700
O96         O  0.06942567  0.62897693  0.40915248    -0.81400
O97         O  0.17425971  0.72671695  0.49150742    -0.84200
C98         C  0.12943225  0.59434112  0.01028500     0.96600
C99         C  0.13179538  0.60593928  0.39483893     1.04000
O100        O  0.12868570  0.65867548  0.45721281    -1.13200
O101        O  0.15912879  0.71765900  0.40287561    -0.75600
O102        O  0.19926206  0.70643224  0.42540289    -0.79100
O103        O  0.10238217  0.59716481  0.00923667    -0.79800
C104        C  0.18982598  0.72240213  0.40155273     0.95500
O105        O  0.18586909  0.68447277  0.01039937    -0.77700
O106        O  0.08215274  0.68261192  0.42341115    -0.82900
C107        C  0.07131391  0.66300010  0.01430906     0.98100
C108        C  0.06135176  0.65227697  0.40968790     1.04000
O109        O  0.06169837  0.63365588  0.99744205    -0.78600
C110        C  0.18827894  0.71354313  0.01697936     1.02300
Fe111      Fe  0.99388016  0.83587146  0.12014923     1.65800
Fe112      Fe  0.03991287  0.79566829  0.12227306     1.73200
Fe113      Fe  0.95174503  0.74933818  0.11616731     1.54400
O114        O  0.92695083  0.76740357  0.15485754    -0.82300
O115        O  0.02817234  0.76592835  0.07153395    -0.80600
O116        O  0.96784222  0.82098855  0.17281183    -0.84800
O117        O  0.94703404  0.81583061  0.08797002    -0.79700
O118        O  0.96508692  0.73274650  0.16648302    -0.81400
O119        O  0.06254468  0.83929914  0.08468251    -0.84200
C120        C  0.93061567  0.79034736  0.06397169     0.96600
C121        C  0.93958191  0.79284552  0.17968162     1.04000
O122        O  0.99521732  0.79325356  0.11946463    -1.13200
O123        O  0.05537183  0.82688486  0.17368092    -0.75600
O124        O  0.04040450  0.86450939  0.15236712    -0.79100
O125        O  0.93522205  0.76437136  0.06501966    -0.79800
C126        C  0.05858211  0.85693937  0.17510915     0.95500
O127        O  0.02004386  0.84936591  0.06753837    -0.77700
O128        O  0.02090475  0.74955287  0.15645911    -0.82900
C129        C  0.00390741  0.73442152  0.06921754     0.98100
C130        C  0.99029448  0.72726858  0.16862991     1.04000
O131        O  0.97293411  0.72448730  0.08133065    -0.78600
C132        C  0.04886350  0.85120612  0.06034945     1.02300
Fe133      Fe  0.32897089  0.81094810  0.20850012     1.65800
Fe134      Fe  0.30326314  0.86127759  0.16532802     1.73200
Fe135      Fe  0.34849246  0.88594612  0.25120355     1.54400
O136        O  0.32078092  0.84291347  0.29190234    -0.82300
O137        O  0.34090626  0.91139142  0.15744518    -0.80600
O138        O  0.29320987  0.79418532  0.25388980    -0.84800
O139        O  0.36726143  0.82632979  0.25161426    -0.79700
O140        O  0.30766112  0.89303363  0.25909267    -0.81400
O141        O  0.33420392  0.85004469  0.12458306    -0.84200
C142        C  0.39181788  0.85620925  0.26071645     0.96600
C143        C  0.29621837  0.81095025  0.28627120     1.04000
O144        O  0.32702757  0.85345449  0.20824258    -1.13200
O145        O  0.26209884  0.81194229  0.16912219    -0.75600
O146        O  0.29142330  0.78529475  0.16548328    -0.79100
O147        O  0.39232437  0.88280646  0.24776380    -0.79800
C148        C  0.26533656  0.78756679  0.15579246     0.95500
O149        O  0.36426835  0.83208831  0.16272789    -0.77700
O150        O  0.27366307  0.87349357  0.20498610    -0.82900
C151        C  0.36814701  0.93343028  0.17549610     0.98100
C152        C  0.27953284  0.88470583  0.24125724     1.04000
O153        O  0.37491446  0.92888734  0.21166882    -0.78600
C154        C  0.36018314  0.84499341  0.13023512     1.02300
Fe155      Fe  0.14864979  0.99524593  0.36876788     1.65800
Fe156      Fe  0.22454349  0.01244823  0.32910281     1.73200
Fe157      Fe  0.19643643  0.96846913  0.41573984     1.54400
O158        O  0.18377601  0.99939555  0.45461743    -0.82300
O159        O  0.23033092  0.97083156  0.32398124    -0.80600
O160        O  0.16900220  0.03083302  0.41438220    -0.84800
O161        O  0.12079748  0.95779968  0.41226647    -0.79700
O162        O  0.24650438  0.00564510  0.42578752    -0.81400
O163        O  0.18240284  0.98512365  0.28703838    -0.84200
C164        C  0.12297192  0.93170158  0.42224938     0.96600
C165        C  0.17942730  0.02565447  0.44811408     1.04000
O166        O  0.19082464  0.99254110  0.37140227    -1.13200
O167        O  0.22318309  0.05724662  0.32910079    -0.75600
O168        O  0.16657785  0.03367529  0.32538531    -0.79100
O169        O  0.14711394  0.92838006  0.40828265    -0.79800
C170        C  0.19694433  0.05759904  0.31628468     0.95500
O171        O  0.13231438  0.95927444  0.32334838    -0.77700
O172        O  0.26640491  0.03810498  0.37023501    -0.82900
C173        C  0.22154356  0.94316672  0.34298396     0.98100
C174        C  0.26976136  0.03193156  0.40716455     1.04000
O175        O  0.20983150  0.93816205  0.37902205    -0.78600
C176        C  0.14981627  0.96156032  0.29172279     1.02300
Fe177      Fe  0.51110532  0.17812375  0.04100993     1.65800
Fe178      Fe  0.43521379  0.12500973  0.08476685     1.73200
Fe179      Fe  0.46228884  0.10142777  0.49803639     1.54400
O180        O  0.47699641  0.14431647  0.45693696    -0.82300
O181        O  0.42411153  0.07551667  0.09245103    -0.80600
O182        O  0.49593164  0.19253124  0.49520424    -0.84800
O183        O  0.54000099  0.16363628  0.49912479    -0.79700
O184        O  0.41342950  0.09139929  0.48906272    -0.81400
O185        O  0.47810876  0.13821096  0.12551229    -0.84200
C186        C  0.53603193  0.13439129  0.49004373     0.96600
C187        C  0.48329244  0.17580236  0.46251419     1.04000
O188        O  0.46734041  0.13425313  0.04166009    -1.13200
O189        O  0.44160034  0.17350412  0.08178335    -0.75600
O190        O  0.49817981  0.20267404  0.08410056    -0.79100
O191        O  0.51036402  0.10730910  0.50341487    -0.79800
C192        C  0.46924668  0.19875152  0.09465795     0.95500
O193        O  0.52673778  0.15866942  0.08701336    -0.77700
O194        O  0.39303226  0.11105449  0.04471007    -0.82900
C195        C  0.43020540  0.05420823  0.07463159     0.98100
C196        C  0.38795010  0.09940577  0.00859243     1.04000
O197        O  0.44226683  0.05933054  0.03868889    -0.78600
C198        C  0.50996754  0.14528288  0.11978591     1.02300
Fe199      Fe  0.83953497  0.99500878  0.12200839     1.65800
Fe200      Fe  0.79683715  0.03824194  0.12537554     1.73200
Fe201      Fe  0.75221009  0.95056956  0.12224358     1.54400
O202        O  0.77341347  0.92921311  0.08268063    -0.82300
O203        O  0.76644502  0.02052894  0.17552074    -0.80600
O204        O  0.82705668  0.97247251  0.06759706    -0.84800
O205        O  0.81941802  0.94656358  0.15058063    -0.79700
O206        O  0.73564973  0.96515619  0.07254654    -0.81400
O207        O  0.83944138  0.05974512  0.16479336    -0.84200
C208        C  0.79341991  0.92910209  0.17380236     0.96600
C209        C  0.80018588  0.94361344  0.05953870     1.04000
O210        O  0.79596919  0.99469802  0.12264705    -1.13200
O211        O  0.82913483  0.05844753  0.07532067    -0.75600
O212        O  0.86762557  0.04333403  0.09327916    -0.79100
O213        O  0.76683042  0.93283371  0.17263651    -0.79800
C214        C  0.85907139  0.06154589  0.07199775     0.95500
O215        O  0.85184269  0.01782561  0.17647444    -0.77700
O216        O  0.75207373  0.02001530  0.08832102    -0.82900
C217        C  0.73440274  0.99832474  0.17305126     0.98100
C218        C  0.73204077  0.99152820  0.06991061     1.04000
O219        O  0.72418275  0.96852439  0.15730553    -0.78600
C220        C  0.85340884  0.04605180  0.18583855     1.02300
Fe221      Fe  0.48382628  0.81606648  0.45476094     1.65800
Fe222      Fe  0.57121005  0.85999642  0.45531167     1.73200
Fe223      Fe  0.52634595  0.90242953  0.46047986     1.54400
O224        O  0.48280977  0.88287008  0.42309376    -0.82300
O225        O  0.59051285  0.89175774  0.00343493    -0.80600
O226        O  0.47293888  0.83133971  0.40205889    -0.84800
O227        O  0.45667585  0.83659219  0.98999140    -0.79700
O228        O  0.55614652  0.91958858  0.40978303    -0.81400
O229        O  0.55068944  0.81613260  0.49303814    -0.84200
C230        C  0.46507542  0.86279978  0.01242980     0.96600
C231        C  0.47103670  0.85850411  0.39709871     1.04000
O232        O  0.52750750  0.85969791  0.45725480    -1.13200
O233        O  0.55732023  0.82909945  0.40362651    -0.75600
O234        O  0.50371886  0.78953332  0.42253365    -0.79100
O235        O  0.49568597  0.88937445  0.01120751    -0.79800
C236        C  0.53082646  0.79850760  0.40131625     0.95500
O237        O  0.49790024  0.80510527  0.00989813    -0.77700
O238        O  0.59757864  0.90692362  0.42137027    -0.82900
C239        C  0.59541744  0.92220044  0.00726101     0.98100
C240        C  0.58783690  0.92782689  0.40896909     1.04000
O241        O  0.57335258  0.93038800  0.99470946    -0.78600
C242        C  0.52505449  0.80321985  0.01530898     1.02300
Fe243      Fe  0.66175396  0.16944617  0.28856441     1.65800
Fe244      Fe  0.61737947  0.08232849  0.28687062     1.73200
Fe245      Fe  0.70617391  0.12740315  0.29142695     1.54400
O246        O  0.72743054  0.16806709  0.24924716    -0.82300
O247        O  0.63074361  0.06247015  0.33427189    -0.80600
O248        O  0.68616631  0.18131704  0.23516225    -0.84800
O249        O  0.70956191  0.19912188  0.31778634    -0.79700
O250        O  0.69286194  0.09355574  0.24474338    -0.81400
O251        O  0.59600206  0.10186126  0.32888625    -0.84200
C252        C  0.72826770  0.19201571  0.34000981     0.96600
C253        C  0.71476174  0.18275644  0.22761685     1.04000
O254        O  0.66178742  0.12583535  0.28884450    -1.13200
O255        O  0.59941731  0.09796575  0.23779111    -0.75600
O256        O  0.61385227  0.15043894  0.25920097    -0.79100
O257        O  0.72449140  0.16182833  0.33967557    -0.79800
C258        C  0.59614702  0.12462144  0.23626549     0.95500
O259        O  0.63783267  0.15659703  0.34210143    -0.77700
O260        O  0.63514498  0.05747943  0.24752539    -0.82900
C261        C  0.65840515  0.06291547  0.34456487     0.98100
C262        C  0.66543345  0.06568634  0.23463406     1.04000
O263        O  0.68855169  0.08526447  0.33134548    -0.78600
C264        C  0.60939824  0.12935725  0.35074785     1.02300
Fe265      Fe  0.50510754  0.32589295  0.29197596     1.65800
Fe266      Fe  0.46162630  0.36871563  0.28860077     1.73200
Fe267      Fe  0.41788577  0.28054873  0.29776162     1.54400
O268        O  0.43626446  0.25781521  0.25661360    -0.82300
O269        O  0.43146118  0.35745127  0.33866326    -0.80600
O270        O  0.49078992  0.29919820  0.24016562    -0.84800
O271        O  0.48802351  0.27982802  0.32404853    -0.79700
O272        O  0.39579184  0.29096801  0.25008582    -0.81400
O273        O  0.50526197  0.39333336  0.32683426    -0.84200
C274        C  0.46266342  0.26230429  0.34775179     0.96600
C275        C  0.46324739  0.27032875  0.23390037     1.04000
O276        O  0.46099605  0.32498119  0.29278822    -1.13200
O277        O  0.49308602  0.38442540  0.23714383    -0.75600
O278        O  0.53214253  0.37196120  0.25959053    -0.79100
O279        O  0.43573519  0.26520484  0.34698458    -0.79800
C280        C  0.52373531  0.38899934  0.23635569     0.95500
O281        O  0.51884582  0.35297033  0.34382281    -0.77700
O282        O  0.41539234  0.34794209  0.25411801    -0.82900
C283        C  0.40344697  0.33041341  0.34940045     0.98100
C284        C  0.39229171  0.31704118  0.24381680     1.04000
O285        O  0.39431621  0.29993181  0.33667096    -0.78600
C286        C  0.52050436  0.38186838  0.34946983     1.02300
Fe287      Fe  0.14976532  0.14761970  0.12674725     1.65800
Fe288      Fe  0.23669424  0.19425316  0.12154517     1.73200
Fe289      Fe  0.18965313  0.23442121  0.12782089     1.54400
O290        O  0.14679471  0.21329372  0.08884418    -0.82300
O291        O  0.25403276  0.22355240  0.17242374    -0.80600
O292        O  0.13484092  0.15929103  0.07440994    -0.84800
O293        O  0.12070961  0.16440590  0.15969272    -0.79700
O294        O  0.21966421  0.25172248  0.07737987    -0.81400
O295        O  0.21858570  0.15028249  0.15821703    -0.84200
C296        C  0.12767304  0.19089213  0.18098507     0.96600
C297        C  0.13304653  0.18616389  0.06656406     1.04000
O298        O  0.19223934  0.19250907  0.12584147    -1.13200
O299        O  0.22121606  0.16381844  0.06953931    -0.75600
O300        O  0.17055913  0.12204344  0.09371453    -0.79100
O301        O  0.15730408  0.21872547  0.17847481    -0.79800
C302        C  0.19573997  0.13253589  0.06881023     0.95500
O303        O  0.16569636  0.13720644  0.17908334    -0.77700
O304        O  0.26247929  0.24159198  0.08908339    -0.82900
C305        C  0.25626279  0.25260191  0.17913668     0.98100
C306        C  0.25172732  0.26172319  0.07738218     1.04000
O307        O  0.23486396  0.26087844  0.16438196    -0.78600
C308        C  0.19408939  0.13765851  0.18437453     1.02300
Fe309      Fe  0.33191608  0.50433305  0.46030575     1.65800
Fe310      Fe  0.37527462  0.46138973  0.45878614     1.73200
Fe311      Fe  0.28703888  0.41733632  0.45442402     1.54400
O312        O  0.26317581  0.43611288  0.49275430    -0.82300
O313        O  0.36072838  0.43286316  0.40726589    -0.80600
O314        O  0.30631297  0.49144834  0.00744087    -0.84800
O315        O  0.28612120  0.48628496  0.42672821    -0.79700
O316        O  0.29834968  0.40084777  0.00435585    -0.81400
O317        O  0.39903880  0.50503479  0.42116350    -0.84200
C318        C  0.26850635  0.46087831  0.40293093     0.96600
C319        C  0.27732785  0.46390077  0.01388019     1.04000
O320        O  0.33147902  0.46080985  0.45809532    -1.13200
O321        O  0.39201867  0.49479033  0.01072211    -0.75600
O322        O  0.37942311  0.53345490  0.98710284    -0.79100
O323        O  0.27092828  0.43356618  0.40402700    -0.79800
C324        C  0.39609442  0.52513624  0.01133299     0.95500
O325        O  0.35884276  0.51937837  0.40796700    -0.77700
O326        O  0.35493747  0.41805606  0.99988368    -0.82900
C327        C  0.33708161  0.40125061  0.40606245     0.98100
C328        C  0.32443178  0.39828550  0.01440092     1.04000
O329        O  0.30660680  0.39112260  0.41979365    -0.78600
C330        C  0.38643631  0.51933022  0.39885575     1.02300
Fe331      Fe  0.48156942  0.66127458  0.20765334     1.65800
Fe332      Fe  0.53718080  0.64101773  0.24809006     1.73200
Fe333      Fe  0.55807160  0.68788880  0.16368795     1.54400
O334        O  0.51539469  0.65698670  0.12309031    -0.82300
O335        O  0.58675378  0.68052007  0.25459003    -0.80600
O336        O  0.46680411  0.62621027  0.16144344    -0.84800
O337        O  0.49325391  0.69876333  0.16403496    -0.79700
O338        O  0.57141176  0.65111471  0.15495391    -0.81400
O339        O  0.52427077  0.66990635  0.29018587    -0.84200
C340        C  0.52199686  0.72477814  0.15391058     0.96600
C341        C  0.48378955  0.63116685  0.12849833     1.04000
O342        O  0.52614220  0.66325479  0.20640346    -1.13200
O343        O  0.48902501  0.59781822  0.24638426    -0.75600
O344        O  0.45844701  0.62315586  0.25149409    -0.79100
O345        O  0.54947532  0.72833517  0.16826293    -0.79800
C346        C  0.46370683  0.59886321  0.26099462     0.95500
O347        O  0.50171478  0.69675440  0.25345816    -0.77700
O348        O  0.55077635  0.61391041  0.20622349    -0.82900
C349        C  0.60593259  0.70991813  0.23865261     0.98100
C350        C  0.56352813  0.62219177  0.17060960     1.04000
O351        O  0.59985118  0.71748421  0.20361051    -0.78600
C352        C  0.51646238  0.69410543  0.28528025     1.02300
Fe353      Fe  0.66191039  0.47597521  0.04115387     1.65800
Fe354      Fe  0.63946596  0.52851466  0.49697509     1.73200
Fe355      Fe  0.68114544  0.55154790  0.08250835     1.54400
O356        O  0.65314163  0.50893778  0.12377404    -0.82300
O357        O  0.67846970  0.57784755  0.48782367    -0.80600
O358        O  0.62586992  0.45981416  0.08641847    -0.84800
O359        O  0.70049744  0.49201866  0.08460299    -0.79700
O360        O  0.64045980  0.55934319  0.08879497    -0.81400
O361        O  0.66897562  0.51418609  0.45787622    -0.84200
C362        C  0.72525357  0.52208869  0.09295020     0.96600
C363        C  0.62862549  0.47691273  0.11843981     1.04000
O364        O  0.66028320  0.51871190  0.03964360    -1.13200
O365        O  0.59699715  0.47993319  0.50194637    -0.75600
O366        O  0.62464910  0.45153944  0.49948725    -0.79100
O367        O  0.72514939  0.54844616  0.08014210    -0.79800
C368        C  0.59954516  0.45513383  0.48857826     0.95500
O369        O  0.69808466  0.49627765  0.49780254    -0.77700
O370        O  0.60927446  0.54212192  0.03241743    -0.82900
C371        C  0.70263972  0.59826885  0.00569863     0.98100
C372        C  0.61441886  0.55412863  0.06834035     1.04000
O373        O  0.70781735  0.59431227  0.04275018    -0.78600
C374        C  0.69423759  0.50821222  0.46436133     1.02300
Fe375      Fe  0.84808382  0.84500849  0.36750153     1.65800
Fe376      Fe  0.77308631  0.79572777  0.41498214     1.73200
Fe377      Fe  0.79004352  0.76841726  0.32866521     1.54400
O378        O  0.80473945  0.81009315  0.28585210    -0.82300
O379        O  0.76059089  0.74602166  0.42531462    -0.80600
O380        O  0.82761142  0.86001917  0.32179150    -0.84800
O381        O  0.86921205  0.82770973  0.32418015    -0.79700
O382        O  0.74191888  0.76149911  0.32300423    -0.81400
O383        O  0.81703050  0.80920984  0.45364458    -0.84200
C384        C  0.86366612  0.79764442  0.31618422     0.96600
C385        C  0.81284541  0.84227808  0.29010919     1.04000
O386        O  0.80322390  0.80220029  0.37056267    -1.13200
O387        O  0.78165438  0.84461502  0.40818879    -0.75600
O388        O  0.83790579  0.87230267  0.41101970    -0.79100
O389        O  0.83706772  0.77120868  0.32954314    -0.79800
C390        C  0.80932784  0.86922506  0.42186645     0.95500
O391        O  0.86386809  0.82554026  0.41327729    -0.77700
O392        O  0.72922633  0.78144738  0.37796574    -0.82900
C393        C  0.76443692  0.72331727  0.40727470     0.98100
C394        C  0.72260890  0.76965969  0.34199963     1.04000
O395        O  0.77400778  0.72671826  0.37028214    -0.78600
C396        C  0.84793726  0.81411097  0.44687448     1.02300
C397        C  0.74669776  0.66462052  0.49861318    -0.26900
C398        C  0.72894047  0.63164962  0.48099940    -0.15000
C399        C  0.72907063  0.62928203  0.43826903     0.35600
C400        C  0.74272425  0.65943283  0.41428992    -0.26400
C401        C  0.75692951  0.69225416  0.43197515    -0.15600
C402        C  0.76093328  0.69483288  0.47458177     0.36700
N403        N  0.77895577  0.72821317  0.49374036    -0.89900
H404        H  0.74780571  0.66706364  0.53109887     0.17800
H405        H  0.74048833  0.65691139  0.38183931     0.17800
N406        N  0.71440263  0.59603762  0.41896248    -0.88900
H407        H  0.79985838  0.72986943  0.50995630     0.35200
H408        H  0.76188320  0.72972176  0.51418316     0.40300
H409        H  0.74330088  0.59879698  0.90741604     0.39900
H410        H  0.69437828  0.59307678  0.39995425     0.34800
C411        C  0.62992260  0.73166335  0.30670940    -0.26900
C412        C  0.63530457  0.73494741  0.26451375    -0.15000
C413        C  0.66917340  0.75761246  0.24989201     0.35600
C414        C  0.69705150  0.77264820  0.27711601    -0.26400
C415        C  0.69206872  0.76486286  0.31874904    -0.15600
C416        C  0.65786144  0.74588225  0.33378939     0.36700
N417        N  0.65083566  0.73822528  0.37578632    -0.89900
H418        H  0.60383029  0.71545634  0.31872066     0.17800
H419        H  0.72329087  0.78805840  0.26517731     0.17800
N420        N  0.67644749  0.76371539  0.20773137    -0.88900
H421        H  0.66165950  0.76177042  0.39142918     0.35200
H422        H  0.66303025  0.72469150  0.38536064     0.40300
H423        H  0.66204847  0.77437380  0.19621577     0.39900
H424        H  0.66828986  0.73987436  0.19358435     0.34800
C425        C  0.57202557  0.60496812  0.10190969    -0.26900
C426        C  0.56916503  0.59833242  0.14386411    -0.15000
C427        C  0.57315035  0.57065577  0.15774031     0.35600
C428        C  0.58363476  0.55346910  0.13066207    -0.26400
C429        C  0.59052087  0.56309099  0.08960134    -0.15600
C430        C  0.58260124  0.58798139  0.07474581     0.36700
N431        N  0.58723599  0.59876758  0.03328190    -0.89900
H432        H  0.56737067  0.62484046  0.08986869     0.17800
H433        H  0.58904147  0.53402731  0.14251357     0.17800
N434        N  0.56857086  0.56052336  0.19920917    -0.88900
H435        H  0.56288564  0.59302793  0.02228438     0.35200
H436        H  0.59511668  0.58481506  0.01547580     0.40300
H437        H  0.54298299  0.55273328  0.20761695     0.39900
H438        H  0.58579016  0.58202916  0.21648892     0.34800
C439        C  0.43881747  0.54391120  0.35494991    -0.26900
C440        C  0.40468649  0.53691349  0.36124984    -0.15000
C441        C  0.38854775  0.54675974  0.33137706     0.35600
C442        C  0.40800302  0.56589198  0.29788948    -0.26400
C443        C  0.44254230  0.57412537  0.29270098    -0.15600
C444        C  0.45778783  0.56224480  0.32097544     0.36700
N445        N  0.49314888  0.57027080  0.31649934    -0.89900
H446        H  0.45137290  0.53603343  0.37702615     0.17800
H447        H  0.39626262  0.57473386  0.27585670     0.17800
N448        N  0.35260961  0.53746119  0.33496280    -0.88900
H449        H  0.49320017  0.54685503  0.31600925     0.35200
H450        H  0.50719600  0.58438160  0.34174996     0.40300
H451        H  0.33738864  0.51035829  0.33275823     0.39900
H452        H  0.34528409  0.54752884  0.31095401     0.34800
C453        C  0.43656231  0.58772071  0.03064110    -0.26900
C454        C  0.42101904  0.55206497  0.04044972    -0.15000
C455        C  0.42885385  0.54304964  0.07825907     0.35600
C456        C  0.45069842  0.56954460  0.10547498    -0.26400
C457        C  0.46537369  0.60503528  0.09599852    -0.15600
C458        C  0.45861134  0.61404074  0.05771183     0.36700
N459        N  0.47246335  0.64962639  0.04619954    -0.89900
H460        H  0.43123183  0.59530741  0.00175140     0.17800
H461        H  0.45568283  0.56243706  0.13486435     0.17800
N462        N  0.41376961  0.50711093  0.08959399    -0.88900
H463        H  0.49966794  0.66226304  0.04731101     0.35200
H464        H  0.46403207  0.66127829  0.06711509     0.40300
H465        H  0.38682913  0.49657039  0.09223006     0.39900
H466        H  0.42260007  0.50495423  0.11798296     0.34800
C467        C  0.30754464  0.31004093  0.04676608    -0.26900
C468        C  0.27633862  0.29894238  0.06800382    -0.15000
C469        C  0.26822607  0.32421223  0.08104256     0.35600
C470        C  0.28847959  0.35866572  0.06828275    -0.26400
C471        C  0.31637051  0.36872006  0.04156856    -0.15600
C472        C  0.32754872  0.34483510  0.03315812     0.36700
N473        N  0.35188375  0.34780401  0.49255147    -0.89900
H474        H  0.31121568  0.28538739  0.52590813     0.17800
H475        H  0.28016678  0.37694220  0.07622153     0.17800
N476        N  0.23870002  0.31484869  0.10650783    -0.88900
H477        H  0.33973925  0.33064143  0.46859885     0.35200
H478        H  0.37062689  0.34277143  0.50440281     0.40300
H479        H  0.22200682  0.32121317  0.09158800     0.39900
H480        H  0.24753749  0.32985053  0.13268437     0.34800
C481        C  0.59119617  0.42108726  0.42716226    -0.26900
C482        C  0.57709569  0.43419804  0.45509361    -0.15000
C483        C  0.54456192  0.43144652  0.44714133     0.35600
C484        C  0.52699050  0.41567390  0.41123817    -0.26400
C485        C  0.54123490  0.40245524  0.38376761    -0.15600
C486        C  0.57372081  0.40556313  0.39157936     0.36700
N487        N  0.58943411  0.39368942  0.36284435    -0.89900
H488        H  0.61662797  0.42403516  0.43211169     0.17800
H489        H  0.50172285  0.41275425  0.40520952     0.17800
N490        N  0.52948517  0.44446011  0.47547261    -0.88900
H491        H  0.59391444  0.37537306  0.37698938     0.35200
H492        H  0.61357488  0.41489996  0.35443029     0.40300
H493        H  0.52406640  0.42977203  0.50184573     0.39900
H494        H  0.50562432  0.44049398  0.46487705     0.34800
C495        C  0.54091910  0.41889850  0.16927257    -0.26900
C496        C  0.55083980  0.41445283  0.20788222    -0.15000
C497        C  0.58697852  0.43355668  0.21795922     0.35600
C498        C  0.61180047  0.45547076  0.18934257    -0.26400
C499        C  0.60186327  0.45811272  0.15016889    -0.15600
C500        C  0.56602601  0.44001951  0.14036306     0.36700
N501        N  0.55503958  0.44299700  0.10079874    -0.89900
H502        H  0.51362312  0.40486453  0.16089721     0.17800
H503        H  0.63920971  0.46922327  0.19724117     0.17800
N504        N  0.59946378  0.43148267  0.25699629    -0.88900
H505        H  0.53806275  0.45262908  0.10352386     0.35200
H506        H  0.54113716  0.41806538  0.08833540     0.40300
H507        H  0.59499443  0.40636105  0.26150516     0.39900
H508        H  0.58597424  0.43699169  0.27878553     0.34800
C509        C  0.32891238  0.28439719  0.25307597    -0.26900
C510        C  0.35725017  0.30879182  0.22965599    -0.15000
C511        C  0.35036410  0.32022731  0.19291504     0.35600
C512        C  0.31552825  0.30480179  0.17941857    -0.26400
C513        C  0.28766914  0.27803617  0.20145884    -0.15600
C514        C  0.29458143  0.26901382  0.23949863     0.36700
N515        N  0.26732362  0.24286456  0.26405744    -0.89900
H516        H  0.33371033  0.27529410  0.28123292     0.17800
H517        H  0.31066034  0.31132910  0.14965030     0.17800
N518        N  0.37774981  0.34476812  0.16701090    -0.88900
H519        H  0.25549305  0.21911968  0.24878751     0.35200
H520        H  0.24864945  0.25010573  0.26888725     0.40300
H521        H  0.40227247  0.35349291  0.17958555     0.39900
H522        H  0.37485339  0.36652881  0.16434365     0.34800
C523        C  0.34708610  0.32800954  0.35940471    -0.26900
C524        C  0.38011610  0.33699472  0.37473962    -0.15000
C525        C  0.39516284  0.36296350  0.40453636     0.35600
C526        C  0.37994659  0.38285203  0.41332216    -0.26400
C527        C  0.34851984  0.37624946  0.39547499    -0.15600
C528        C  0.33100507  0.34738547  0.36927644     0.36700
N529        N  0.29862503  0.33844917  0.34999447    -0.89900
H530        H  0.33530552  0.30817144  0.33650527     0.17800
H531        H  0.39310451  0.40397809  0.43468483     0.17800
N532        N  0.42722707  0.37137560  0.42438679    -0.88900
H533        H  0.30319561  0.34142127  0.31896901     0.35200
H534        H  0.29009643  0.35549809  0.35804791     0.40300
H535        H  0.43486412  0.35343902  0.41701239     0.39900
H536        H  0.42229105  0.36847774  0.45533838     0.34800
C537        C  0.64137036  0.97410074  0.37209090    -0.26900
C538        C  0.61350328  0.96466275  0.39887503    -0.15000
C539        C  0.60873605  0.99117026  0.41555534     0.35600
C540        C  0.62886433  0.02539485  0.40209265    -0.26400
C541        C  0.65307021  0.03399579  0.37105215    -0.15600
C542        C  0.66127260  0.00881058  0.35778948     0.36700
N543        N  0.68753614  0.01782723  0.32743270    -0.89900
H544        H  0.64595026  0.95414549  0.36023058     0.17800
H545        H  0.62272251  0.04463678  0.41285609     0.17800
N546        N  0.58215439  0.98323184  0.44501349    -0.88900
H547        H  0.68962685  0.99618373  0.31997632     0.35200
H548        H  0.71144871  0.03624258  0.33989158     0.40300
H549        H  0.56505329  0.99069542  0.43353412     0.39900
H550        H  0.59402920  0.99816967  0.47065542     0.34800
C551        C  0.55472642  0.79604082  0.07429501    -0.26900
C552        C  0.52500895  0.78310365  0.05011685    -0.15000
C553        C  0.49431438  0.75239404  0.06128898     0.35600
C554        C  0.49359188  0.73533730  0.09669497    -0.26400
C555        C  0.52339719  0.74758210  0.12084481    -0.15600
C556        C  0.55440090  0.77861219  0.10940898     0.36700
N557        N  0.58578054  0.79335987  0.13268702    -0.89900
H558        H  0.57821468  0.82005677  0.06610315     0.17800
H559        H  0.46971791  0.71154201  0.10436658     0.17800
N560        N  0.46403771  0.73786301  0.03607815    -0.88900
H561        H  0.59565018  0.77652900  0.13222601     0.35200
H562        H  0.58003564  0.79671914  0.16227965     0.40300
H563        H  0.44162523  0.72730896  0.54483833     0.39900
H564        H  0.45790336  0.71275287  0.02783219     0.34800
C565        C  0.54510434  0.78176962  0.33469250    -0.26900
C566        C  0.53085676  0.77203685  0.37349114    -0.15000
C567        C  0.51528864  0.73651901  0.38472403     0.35600
C568        C  0.51256252  0.71142211  0.35662816    -0.26400
C569        C  0.52473004  0.72096920  0.31702058    -0.15600
C570        C  0.54190400  0.75666204  0.30649988     0.36700
N571        N  0.55599201  0.76749525  0.26682375    -0.89900
H572        H  0.55758285  0.80882977  0.32560221     0.17800
H573        H  0.49957117  0.68424859  0.36535210     0.17800
N574        N  0.50226920  0.72581324  0.42479878    -0.88900
H575        H  0.58271555  0.78524955  0.26944093     0.35200
H576        H  0.54433593  0.78041588  0.25378321     0.40300
H577        H  0.51523601  0.71409035  0.43755511     0.39900
H578        H  0.47576840  0.70704503  0.42298982     0.34800
C579        C  0.77384135  0.88375956  0.46666574    -0.26900
C580        C  0.80720156  0.89075119  0.45445305    -0.15000
C581        C  0.83660292  0.91459844  0.47713220     0.35600
C582        C  0.83425636  0.93315359  0.00877262    -0.26400
C583        C  0.80150774  0.92622253  0.02264783    -0.15600
C584        C  0.77138424  0.90404092  0.00049537     0.36700
N585        N  0.73794265  0.89871820  0.01243857    -0.89900
H586        H  0.75101316  0.86572914  0.44960120     0.17800
H587        H  0.85775773  0.95090211  0.02506532     0.17800
N588        N  0.87154627  0.92369986  0.46701958    -0.88900
H589        H  0.71613277  0.87381428  0.49295385     0.35200
H590        H  0.73889322  0.92251290  0.00929889     0.40300
H591        H  0.87703371  0.93352896  0.43767044     0.39900
H592        H  0.87343873  0.90168570  0.96760415     0.34800
C593        C  0.81195492  0.88577293  0.19091573    -0.26900
C594        C  0.79494103  0.90389350  0.20254251    -0.15000
C595        C  0.78160939  0.89915497  0.24210907     0.35600
C596        C  0.78670064  0.87777009  0.26928466    -0.26400
C597        C  0.80441398  0.86039322  0.25800812    -0.15600
C598        C  0.81632987  0.86369936  0.21797090     0.36700
N599        N  0.83428346  0.84608513  0.20545606    -0.89900
H600        H  0.82212992  0.88905876  0.16056731     0.17800
H601        H  0.77740641  0.87521678  0.29998303     0.17800
N602        N  0.76412596  0.91710408  0.25515999    -0.88900
H603        H  0.84240515  0.85212065  0.17550164     0.35200
H604        H  0.81634138  0.81934829  0.20632236     0.40300
H605        H  0.78241876  0.94377234  0.25494729     0.39900
H606        H  0.75557050  0.91055776  0.28491260     0.34800
C607        C  0.69834890  0.05872255  0.18044611    -0.26900
C608        C  0.67153019  0.04218043  0.20870361    -0.15000
C609        C  0.66058104  0.00740717  0.21995736     0.35600
C610        C  0.67970580  0.99176740  0.20616160    -0.26400
C611        C  0.70983960  0.01082495  0.18246267    -0.15600
C612        C  0.71806560  0.04410187  0.16831073     0.36700
N613        N  0.74763084  0.06416695  0.14273950    -0.89900
H614        H  0.70670707  0.08514091  0.17106223     0.17800
H615        H  0.67253498  0.96582673  0.21608461     0.17800
N616        N  0.63121055  0.98869956  0.24642239    -0.88900
H617        H  0.76458441  0.08749911  0.15739804     0.35200
H618        H  0.73892571  0.07022265  0.11644186     0.40300
H619        H  0.63725614  0.00156847  0.27407132     0.39900
H620        H  0.62686869  0.96374165  0.25204481     0.34800
C621        C  0.67361994  0.98585896  0.07065267    -0.26900
C622        C  0.70077072  0.98641895  0.04804705    -0.15000
C623        C  0.69329500  0.97179924  0.00911656     0.35600
C624        C  0.65650662  0.94871067  0.49602579    -0.26400
C625        C  0.63089898  0.94936582  0.02030817    -0.15600
C626        C  0.63866929  0.96739228  0.05732942     0.36700
N627        N  0.61197616  0.96595888  0.08304360    -0.89900
H628        H  0.67901242  0.99696874  0.10058220     0.17800
H629        H  0.65021564  0.93305389  0.46904880     0.17800
N630        N  0.71727811  0.96695834  0.48261708    -0.88900
H631        H  0.61147907  0.95288452  0.10939537     0.35200
H632        H  0.58737503  0.95161509  0.06992401     0.40300
H633        H  0.74235795  0.98353286  0.49366120     0.39900
H634        H  0.71648236  0.97703166  0.45446397     0.34800
C635        C  0.55028066  0.12413562  0.13881735    -0.26900
C636        C  0.52896308  0.13733050  0.15139513    -0.15000
C637        C  0.52819358  0.14425994  0.19275527     0.35600
C638        C  0.54964455  0.13908018  0.22005204    -0.26400
C639        C  0.57139180  0.12641489  0.20715467    -0.15600
C640        C  0.57097296  0.11833391  0.16594860     0.36700
N641        N  0.59244264  0.10561598  0.15035690    -0.89900
H642        H  0.55112713  0.11848420  0.10724161     0.17800
H643        H  0.54972939  0.14537221  0.25156234     0.17800
N644        N  0.50660232  0.15751653  0.20674559    -0.88900
H645        H  0.58509026  0.08175985  0.16408739     0.35200
H646        H  0.61841550  0.12336192  0.15760474     0.40300
H647        H  0.51611342  0.18214758  0.19396990     0.39900
H648        H  0.50884726  0.16107673  0.23793704     0.34800
C649        C  0.58293950  0.16302064  0.44009748    -0.26900
C650        C  0.55843782  0.13206051  0.45902117    -0.15000
C651        C  0.55193198  0.09974807  0.44328712     0.35600
C652        C  0.56863962  0.09935497  0.40760079    -0.26400
C653        C  0.59176447  0.13041352  0.38773250    -0.15600
C654        C  0.59914952  0.16257178  0.40453540     0.36700
N655        N  0.62205903  0.19500350  0.38486799    -0.89900
H656        H  0.58828886  0.18800101  0.45158886     0.17800
H657        H  0.56361541  0.07472591  0.39531394     0.17800
N658        N  0.52787090  0.06749552  0.46281138    -0.88900
H659        H  0.64222476  0.21057656  0.40473250     0.35200
H660        H  0.60805909  0.20751852  0.37878866     0.40300
H661        H  0.53849615  0.06720552  0.49074586     0.39900
H662        H  0.52549020  0.04627903  0.44665377     0.34800
C663        C  0.45889050  0.21289425  0.44333471    -0.26900
C664        C  0.47529107  0.19448952  0.43101897    -0.15000
C665        C  0.48630459  0.19734086  0.39069138     0.35600
C666        C  0.48123471  0.21906834  0.36387845    -0.26400
C667        C  0.46512005  0.23781709  0.37645358    -0.15600
C668        C  0.45358219  0.23417615  0.41678207     0.36700
N669        N  0.43788545  0.25299583  0.43228690    -0.89900
H670        H  0.45054369  0.21115097  0.47436207     0.17800
H671        H  0.49027991  0.22171201  0.33306378     0.17800
N672        N  0.50354766  0.17920527  0.37746725    -0.88900
H673        H  0.41460016  0.24511332  0.41689383     0.35200
H674        H  0.45487889  0.27957593  0.42730563     0.40300
H675        H  0.52704830  0.18938490  0.39321297     0.39900
H676        H  0.51006611  0.18408679  0.34696591     0.34800
C677        C  0.49583673  0.23426746  0.15462025    -0.26900
C678        C  0.46799365  0.22014747  0.12735712    -0.15000
C679        C  0.43797660  0.22217873  0.13561365     0.35600
C680        C  0.43605415  0.23757715  0.17151412    -0.26400
C681        C  0.46372469  0.25091735  0.19891451    -0.15600
C682        C  0.49382097  0.24914683  0.19057726     0.36700
N683        N  0.52196781  0.26195394  0.21910626    -0.89900
H684        H  0.51869233  0.23219680  0.14890603     0.17800
H685        H  0.41331918  0.23979408  0.17757812     0.17800
N686        N  0.40969381  0.20901299  0.10757122    -0.88900
H687        H  0.54223201  0.25875737  0.20826380     0.35200
H688        H  0.51243269  0.24663939  0.24506445     0.40300
H689        H  0.40595531  0.22950444  0.09925084     0.39900
H690        H  0.38712753  0.19023533  0.12230384     0.34800
C691        C  0.29715927  0.05604416  0.47375732    -0.26900
C692        C  0.30114127  0.05534850  0.43150546    -0.15000
C693        C  0.33480523  0.07401002  0.41490335     0.35600
C694        C  0.36362826  0.09027021  0.44090034    -0.26400
C695        C  0.35976400  0.08736808  0.48327856    -0.15600
C696        C  0.32445364  0.08189202  0.99814680     0.36700
N697        N  0.31810620  0.07866994  0.04078199    -0.89900
H698        H  0.27120819  0.04280856  0.48675798     0.17800
H699        H  0.38957354  0.10338115  0.42786720     0.17800
N700        N  0.33986764  0.07473576  0.37209292    -0.88900
H701        H  0.29142465  0.06720760  0.04675187     0.35200
H702        H  0.32993875  0.10383006  0.05264448     0.40300
H703        H  0.33215790  0.04940423  0.36294816     0.39900
H704        H  0.36632810  0.09006897  0.36484095     0.34800
C705        C  0.20985567  0.08693693  0.47304778    -0.26900
C706        C  0.18615030  0.05146637  0.48051197    -0.15000
C707        C  0.16658333  0.04199646  0.51639932     0.35600
C708        C  0.18736846  0.07370735  0.05197104    -0.26400
C709        C  0.19486133  0.10693479  0.03891204    -0.15600
C710        C  0.19876521  0.11416657  0.99730424     0.36700
N711        N  0.20597275  0.14758347  0.98286297    -0.89900
H712        H  0.22482005  0.09422902  0.44532879     0.17800
H713        H  0.18437937  0.06800908  0.08392359     0.17800
N714        N  0.14216494  0.00592735  0.52470918    -0.88900
H715        H  0.20620973  0.14814342  0.95139980     0.35200
H716        H  0.23120718  0.16598954  0.99198574     0.40300
H717        H  0.12269633  0.99689163  0.50275135     0.39900
H718        H  0.12979817  0.00321043  0.55237907     0.34800
C719        C  0.22385650  0.11255061  0.22277887    -0.26900
C720        C  0.19800461  0.12166392  0.22125397    -0.15000
C721        C  0.17556941  0.11435981  0.25468451     0.35600
C722        C  0.17715837  0.09519920  0.28694813    -0.26400
C723        C  0.20126014  0.08393476  0.28697295    -0.15600
C724        C  0.22564559  0.09370244  0.25534309     0.36700
N725        N  0.25072892  0.08259280  0.25482933    -0.89900
H726        H  0.24174962  0.11856454  0.19781653     0.17800
H727        H  0.15871423  0.08815588  0.31154278     0.17800
N728        N  0.15089794  0.12598327  0.25598528    -0.88900
H729        H  0.27558311  0.10473377  0.25283860     0.35200
H730        H  0.24663399  0.06769554  0.22892647     0.40300
H731        H  0.15611523  0.14159800  0.28147935     0.39900
H732        H  0.12594171  0.10417489  0.25920648     0.34800
C733        C  0.44805059  0.87789258  0.07820717    -0.26900
C734        C  0.43804402  0.86167698  0.04047208    -0.15000
C735        C  0.40198819  0.84326063  0.03063570     0.35600
C736        C  0.37694646  0.83969246  0.05951714    -0.26400
C737        C  0.38698933  0.85380268  0.09821001    -0.15600
C738        C  0.42315108  0.87382009  0.10710426     0.36700
N739        N  0.43546778  0.89044830  0.14534404    -0.89900
H740        H  0.47544564  0.89260971  0.08606957     0.17800
H741        H  0.34942214  0.82463534  0.05233751     0.17800
N742        N  0.38915688  0.82056560  0.49197725    -0.88900
H743        H  0.42739925  0.87147971  0.16778371     0.35200
H744        H  0.42460042  0.90603277  0.15101520     0.40300
H745        H  0.39783370  0.83982376  0.46974538     0.39900
H746        H  0.36192714  0.80656860  0.49033460     0.34800
C747        C  0.42628556  0.88594660  0.32059283    -0.26900
C748        C  0.41693960  0.86000753  0.29141375    -0.15000
C749        C  0.42758632  0.83551564  0.29549613     0.35600
C750        C  0.44610367  0.83629267  0.32966802    -0.26400
C751        C  0.45393122  0.86102947  0.36027752    -0.15600
C752        C  0.44471000  0.88684329  0.35508382     0.36700
N753        N  0.45278700  0.91303638  0.38517037    -0.89900
H754        H  0.41771527  0.90464604  0.31743444     0.17800
H755        H  0.45375265  0.81687004  0.33244352     0.17800
N756        N  0.41938212  0.80966870  0.26516309    -0.88900
H757        H  0.44166765  0.92810945  0.37788013     0.35200
H758        H  0.47977934  0.93001042  0.38457942     0.40300
H759        H  0.40496149  0.78514600  0.27862207     0.39900
H760        H  0.44277158  0.81236391  0.25458807     0.34800
C761        C  0.21953142  0.91594606  0.27741843    -0.26900
C762        C  0.22528586  0.91700065  0.31941186    -0.15000
C763        C  0.24104822  0.89921386  0.33502837     0.35600
C764        C  0.25477383  0.88477054  0.30831067    -0.26400
C765        C  0.25397779  0.88876604  0.26606988    -0.15600
C766        C  0.23402706  0.90233736  0.25051724     0.36700
N767        N  0.23123319  0.90522355  0.20779329    -0.89900
H768        H  0.20620674  0.92862588  0.26527269     0.17800
H769        H  0.26888533  0.87302097  0.32078530     0.17800
N770        N  0.24587569  0.89834298  0.37751092    -0.88900
H771        H  0.21687684  0.91730532  0.20142552     0.35200
H772        H  0.21689249  0.87996477  0.19631537     0.40300
H773        H  0.27262731  0.91018688  0.38309097     0.39900
H774        H  0.23418842  0.87226819  0.38632825     0.34800
C775        C  0.39211733  0.96058851  0.10881618    -0.26900
C776        C  0.39194022  0.96458254  0.15107281    -0.15000
C777        C  0.41062065  0.99812968  0.16734381     0.35600
C778        C  0.42596146  0.02697531  0.14130490    -0.26400
C779        C  0.42256271  0.02307183  0.09897467    -0.15600
C780        C  0.40713953  0.98944266  0.08260493     0.36700
N781        N  0.40447421  0.98454936  0.03974328    -0.89900
H782        H  0.37878105  0.93465765  0.09600677     0.17800
H783        H  0.43876573  0.05278920  0.15444067     0.17800
N784        N  0.41210616  0.00320786  0.20999918    -0.88900
H785        H  0.39097635  0.95802231  0.03271637     0.35200
H786        H  0.42975475  0.99464060  0.02848963     0.40300
H787        H  0.40112566  0.01853505  0.21661832     0.39900
H788        H  0.43835010  0.01710742  0.21841418     0.34800
C789        C  0.93714909  0.81915616  0.24437092    -0.26900
C790        C  0.92110536  0.79085997  0.21753760    -0.15000
C791        C  0.88825530  0.76209469  0.22766976     0.35600
C792        C  0.87100313  0.76356783  0.26225051    -0.26400
C793        C  0.88589366  0.79335634  0.28677919    -0.15600
C794        C  0.91987632  0.82062855  0.27866832     0.36700
N795        N  0.93674018  0.85020658  0.30477120    -0.89900
H796        H  0.96301973  0.84098380  0.23835336     0.17800
H797        H  0.84494385  0.74212660  0.26846027     0.17800
N798        N  0.87181049  0.73181520  0.20261236    -0.88900
H799        H  0.94318593  0.87248313  0.28787914     0.35200
H800        H  0.95991332  0.85226138  0.31500421     0.40300
H801        H  0.84777087  0.72818957  0.19326339     0.39900
H802        H  0.86707102  0.71030223  0.22004012     0.34800
C803        C  0.88467069  0.78901950  0.46730703    -0.26900
C804        C  0.86657039  0.80604721  0.47855274    -0.15000
C805        C  0.86667716  0.81477957  0.01880013     0.35600
C806        C  0.88829165  0.80996409  0.04595151    -0.26400
C807        C  0.90535932  0.79173640  0.03493485    -0.15600
C808        C  0.90463029  0.78253193  0.49523580     0.36700
N809        N  0.92319489  0.76562041  0.48237352    -0.89900
H810        H  0.88328838  0.78077927  0.43634662     0.17800
H811        H  0.89203997  0.82096541  0.07586228     0.17800
N812        N  0.85038806  0.83393974  0.03105402    -0.88900
H813        H  0.92004128  0.76066362  0.45144952     0.35200
H814        H  0.90416664  0.73478942  0.99952807     0.40300
H815        H  0.86991906  0.85872019  0.04010748     0.39900
H816        H  0.83461846  0.82135145  0.05602372     0.34800
C817        C  0.09975257  0.87131588  0.01487434    -0.26900
C818        C  0.06736011  0.86830691  0.02283755    -0.15000
C819        C  0.05812661  0.89735561  0.50695093     0.35600
C820        C  0.07506151  0.91377369  0.47125847    -0.26400
C821        C  0.10087991  0.90836746  0.45469537    -0.15600
C822        C  0.11962603  0.88992271  0.98143459     0.36700
N823        N  0.15373444  0.89448456  0.97544351    -0.89900
H824        H  0.11035764  0.86032226  0.03560457     0.17800
H825        H  0.06881888  0.93193673  0.45737112     0.17800
N826        N  0.03287957  0.90477755  0.52361096    -0.88900
H827        H  0.15849543  0.87983058  0.99631772     0.35200
H828        H  0.17203849  0.92056228  0.98134869     0.40300
H829        H  0.00421173  0.86425000  0.97480214     0.39900
H830        H  0.04503823  0.93160504  0.52850120     0.34800
C831        C  0.12022488  0.94522800  0.22498845    -0.26900
C832        C  0.13079835  0.93525897  0.25968282    -0.15000
C833        C  0.11874447  0.89931705  0.26572051     0.35600
C834        C  0.09600406  0.87456655  0.23751981    -0.26400
C835        C  0.08428705  0.88432523  0.20341130    -0.15600
C836        C  0.09714822  0.92034728  0.19711224     0.36700
N837        N  0.08684971  0.93201730  0.16244258    -0.89900
H838        H  0.12889831  0.97248632  0.22018224     0.17800
H839        H  0.08673165  0.84727546  0.24300817     0.17800
N840        N  0.12839805  0.88677750  0.30041563    -0.88900
H841        H  0.10933460  0.94921796  0.14636194     0.35200
H842        H  0.07497686  0.94578812  0.17232810     0.40300
H843        H  0.14588014  0.90709775  0.31883980     0.39900
H844        H  0.14161851  0.87444733  0.29014102     0.34800
C845        C  0.01575252  0.66588098  0.51860455    -0.26900
C846        C  0.04641581  0.66984697  0.03654577    -0.15000
C847        C  0.05859386  0.69193643  0.07027949     0.35600
C848        C  0.04292076  0.71128381  0.08079555    -0.26400
C849        C  0.01467813  0.70873547  0.05898791    -0.15600
C850        C  0.99961530  0.68355385  0.02832853     0.36700
N851        N  0.96873071  0.67984297  0.51058271    -0.89900
H852        H  0.00502711  0.64783622  0.49369659     0.17800
H853        H  0.05384930  0.72968559  0.10537193     0.17800
N854        N  0.08858233  0.69647655  0.09192551    -0.88900
H855        H  0.96005892  0.65951348  0.48980676     0.35200
H856        H  0.97496418  0.70228411  0.49416287     0.40300
H857        H  0.08184044  0.67253867  0.10502958     0.39900
H858        H  0.09480250  0.71416076  0.11553438     0.34800
C859        C  0.25375839  0.74688470  0.10041626    -0.26900
C860        C  0.24203124  0.76505735  0.12390272    -0.15000
C861        C  0.21186994  0.76584502  0.11223807     0.35600
C862        C  0.19510839  0.74961111  0.07630945    -0.26400
C863        C  0.20776093  0.73253367  0.05248583    -0.15600
C864        C  0.23734127  0.73113398  0.06451440     0.36700
N865        N  0.25118161  0.71454919  0.03961334    -0.89900
H866        H  0.27705803  0.74648594  0.10882532     0.17800
H867        H  0.17181245  0.74976105  0.06718334     0.17800
N868        N  0.19862446  0.78331369  0.13647852    -0.88900
H869        H  0.27298867  0.71571830  0.05298667     0.35200
H870        H  0.25984075  0.72871059  0.01275751     0.40300
H871        H  0.19037792  0.76997424  0.16387302     0.39900
H872        H  0.17661038  0.78176250  0.12316083     0.34800
C873        C  0.25138561  0.76706083  0.38474367    -0.26900
C874        C  0.21621569  0.74756321  0.37264236    -0.15000
C875        C  0.20748466  0.75098337  0.33280461     0.35600
C876        C  0.23411556  0.77300231  0.30582891    -0.26400
C877        C  0.26932967  0.79188831  0.31771275    -0.15600
C878        C  0.27796869  0.78941430  0.35783814     0.36700
N879        N  0.31376527  0.80802859  0.37054988    -0.89900
H880        H  0.25821321  0.76456607  0.41535268     0.17800
H881        H  0.22746810  0.77487620  0.27492119     0.17800
N882        N  0.17191984  0.73114002  0.31940288    -0.88900
H883        H  0.31584825  0.80206833  0.40048011     0.35200
H884        H  0.32215944  0.83457683  0.36985569     0.40300
H885        H  0.16447622  0.70481866  0.32044571     0.39900
H886        H  0.16991912  0.73680902  0.28932736     0.34800
C887        C  0.95209022  0.66440628  0.15975792    -0.26900
C888        C  0.98107813  0.69146309  0.17958784    -0.15000
C889        C  0.99721672  0.68327604  0.21059768     0.35600
C890        C  0.98087616  0.64858297  0.22482580    -0.26400
C891        C  0.94917199  0.62251267  0.20811310    -0.15600
C892        C  0.93592339  0.63028997  0.17383240     0.36700
N893        N  0.90468865  0.60441191  0.15442141    -0.89900
H894        H  0.94031016  0.67024337  0.13471321     0.17800
H895        H  0.99102201  0.64260285  0.25133151     0.17800
N896        N  0.02815809  0.71033187  0.22947107    -0.88900
H897        H  0.88398163  0.59493155  0.17486970     0.35200
H898        H  0.90824360  0.58383817  0.14594283     0.40300
H899        H  0.04805225  0.72019067  0.20789163     0.39900
H900        H  0.03612006  0.69997205  0.25253701     0.34800
C901        C  0.76155088  0.55362802  0.15099115    -0.26900
C902        C  0.75171497  0.52691282  0.12266119    -0.15000
C903        C  0.76454338  0.50392016  0.12634451     0.35600
C904        C  0.78465296  0.50653332  0.15978375    -0.26400
C905        C  0.79198708  0.53142060  0.19004919    -0.15600
C906        C  0.78130438  0.55609856  0.18458833     0.36700
N907        N  0.78837429  0.58281828  0.21334105    -0.89900
H908        H  0.75207087  0.57164608  0.14835552     0.17800
H909        H  0.79380330  0.48826583  0.16261321     0.17800
N910        N  0.75789670  0.47798739  0.09665186    -0.88900
H911        H  0.81533195  0.59941277  0.21549381     0.35200
H912        H  0.77821375  0.57127159  0.24130181     0.40300
H913        H  0.76589131  0.49022675  0.06859539     0.39900
H914        H  0.73118366  0.46003986  0.09574119     0.34800
C915        C  0.71001072  0.50334807  0.39279434    -0.26900
C916        C  0.72052311  0.51517587  0.43225280    -0.15000
C917        C  0.75646909  0.53206685  0.44157441     0.35600
C918        C  0.78099963  0.53657262  0.41179350    -0.26400
C919        C  0.77047781  0.52348882  0.37273611    -0.15600
C920        C  0.73435252  0.50669703  0.36332698     0.36700
N921        N  0.72158253  0.49311012  0.32399704    -0.89900
H922        H  0.68255546  0.49021879  0.38518305     0.17800
H923        H  0.80838328  0.54941902  0.41968863     0.17800
N924        N  0.76824227  0.54486677  0.48142711    -0.88900
H925        H  0.72672218  0.47316205  0.31798183     0.35200
H926        H  0.73480889  0.51306858  0.30294267     0.40300
H927        H  0.78175352  0.58077964  0.97079584     0.39900
H928        H  0.78154924  0.53290563  0.49254971     0.34800
C929        C  0.01658204  0.66013923  0.37235506    -0.26900
C930        C  0.02492762  0.64120533  0.39921707    -0.15000
C931        C  0.99789624  0.60930494  0.41490864     0.35600
C932        C  0.96385203  0.59554821  0.40121292    -0.26400
C933        C  0.95620177  0.61210571  0.37074360    -0.15600
C934        C  0.98224472  0.64547489  0.35738065     0.36700
N935        N  0.97444770  0.66263903  0.32599809    -0.89900
H936        H  0.03716259  0.68481805  0.36073842     0.17800
H937        H  0.94406043  0.56975891  0.41115179     0.17800
N938        N  0.00520708  0.58970050  0.44338157    -0.88900
H939        H  0.99658320  0.68644054  0.31870922     0.35200
H940        H  0.95600560  0.66835607  0.33736768     0.40300
H941        H  0.99760484  0.56538172  0.43079241     0.39900
H942        H  0.98996129  0.58569239  0.46903271     0.34800
C943        C  0.76456977  0.20997741  0.40281492    -0.26900
C944        C  0.75466401  0.21969955  0.36726650    -0.15000
C945        C  0.76925952  0.25578232  0.35911922     0.35600
C946        C  0.79113823  0.28080875  0.38783202    -0.26400
C947        C  0.79892915  0.27070814  0.42447602    -0.15600
C948        C  0.78600375  0.23481971  0.43140711     0.36700
N949        N  0.79392534  0.22274181  0.46758685    -0.89900
H950        H  0.75436172  0.18267227  0.40938465     0.17800
H951        H  0.80103039  0.30820999  0.38226838     0.17800
N952        N  0.76175585  0.26696643  0.32183097    -0.88900
H953        H  0.78400393  0.22954763  0.49219832     0.35200
H954        H  0.81102939  0.23930888  0.98758234     0.40300
H955        H  0.77267316  0.25963194  0.29870384     0.39900
H956        H  0.77405424  0.29410537  0.32071906     0.34800
C957        C  0.75141334  0.25210671  0.14831689    -0.26900
C958        C  0.76623124  0.23883437  0.12164690    -0.15000
C959        C  0.76413723  0.20675587  0.13001461     0.35600
C960        C  0.74801354  0.18911008  0.16568060    -0.26400
C961        C  0.73384518  0.20288198  0.19241951    -0.15600
C962        C  0.73559331  0.23468028  0.18389097     0.36700
N963        N  0.72203168  0.24952276  0.21189680    -0.89900
H964        H  0.75374675  0.27712696  0.14251823     0.17800
H965        H  0.74589603  0.16429857  0.17230745     0.17800
N966        N  0.77849500  0.19240732  0.10250109    -0.88900
H967        H  0.72537592  0.27302065  0.20092713     0.35200
H968        H  0.73679724  0.25550243  0.23820516     0.40300
H969        H  0.76440626  0.18679009  0.07567278     0.39900
H970        H  0.77488314  0.16878900  0.11339304     0.34800
C971        C  0.87539045  0.39532269  0.17466186    -0.26900
C972        C  0.84605066  0.38097490  0.14929931    -0.15000
C973        C  0.82265646  0.39343913  0.15275417     0.35600
C974        C  0.82926936  0.42013014  0.18002244    -0.26400
C975        C  0.85891957  0.43527950  0.20477909    -0.15600
C976        C  0.88203516  0.42198521  0.20259646     0.36700
N977        N  0.91188416  0.43401417  0.22842357    -0.89900
H978        H  0.89362539  0.38610366  0.17244680     0.17800
H979        H  0.81088603  0.42925250  0.18165707     0.17800
N980        N  0.79165854  0.37872805  0.12879883    -0.88900
H981        H  0.90862611  0.41262817  0.24503922     0.35200
H982        H  0.91325305  0.45188977  0.24955797     0.40300
H983        H  0.79213359  0.39872684  0.11184350     0.39900
H984        H  0.77018155  0.36881161  0.14821033     0.34800
C985        C  0.89035509  0.43647146  0.43538391    -0.26900
C986        C  0.85876323  0.41762413  0.45654759    -0.15000
C987        C  0.83015821  0.42126045  0.44525887     0.35600
C988        C  0.83294440  0.44097586  0.41142500    -0.26400
C989        C  0.86342182  0.45692314  0.38767545    -0.15600
C990        C  0.89305302  0.45584855  0.40123261     0.36700
N991        N  0.92598902  0.47314011  0.38078884    -0.89900
H992        H  0.91284826  0.43462056  0.44393529     0.17800
H993        H  0.81037346  0.44274087  0.40304301     0.17800
N994        N  0.79788354  0.40525706  0.46712341    -0.88900
H995        H  0.93514042  0.49984933  0.37994013     0.35200
H996        H  0.92279734  0.46329142  0.35157875     0.40300
H997        H  0.80883455  0.41257981  0.99970725     0.39900
H998        H  0.78537958  0.37826719  0.46387539     0.34800
C999        C  0.91751046  0.21947472  0.47159951    -0.26900
C1000       C  0.91761724  0.22399394  0.42943370    -0.15000
C1001       C  0.90212781  0.24220239  0.41383245     0.35600
C1002       C  0.89051982  0.25855036  0.44042662    -0.26400
C1003       C  0.89471617  0.25787723  0.48258272    -0.15600
C1004       C  0.90678273  0.23658682  0.49822175     0.36700
N1005       N  0.92450105  0.24242017  0.04531677    -0.89900
H1006       H  0.92897770  0.20509900  0.48408444     0.17800
H1007       H  0.88017082  0.27388909  0.42782779     0.17800
N1008       N  0.90033540  0.24682624  0.37142936    -0.88900
H1009       H  0.90107507  0.22918289  0.06138897     0.35200
H1010       H  0.93749959  0.26857801  0.05391271     0.40300
H1011       H  0.88615168  0.22220394  0.35819933     0.39900
H1012       H  0.92560608  0.25941467  0.35964118     0.34800
C1013       C  0.03890630  0.16349304  0.23021395    -0.26900
C1014       C  0.04892571  0.18275111  0.26598852    -0.15000
C1015       C  0.08483607  0.20637109  0.27269899     0.35600
C1016       C  0.10992477  0.20937278  0.24424840    -0.26400
C1017       C  0.10015140  0.18883888  0.20924435    -0.15600
C1018       C  0.06400623  0.16615373  0.20206967     0.36700
N1019       N  0.05249131  0.14569252  0.16611480    -0.89900
H1020       H  0.01151704  0.14522296  0.22476782     0.17800
H1021       H  0.13734514  0.22711488  0.25009127     0.17800
N1022       N  0.09571215  0.22689100  0.30885589    -0.88900
H1023       H  0.03603574  0.15205975  0.15065579     0.35200
H1024       H  0.03786297  0.11947351  0.17443970     0.40300
H1025       H  0.08552318  0.24346983  0.30808255     0.39900
H1026       H  0.12285352  0.24283546  0.30953213     0.34800
C1027       C  0.09137506  0.17123521  0.45935349    -0.26900
C1028       C  0.08483022  0.19863374  0.45580372    -0.15000
C1029       C  0.11061368  0.21641792  0.97095428     0.35600
C1030       C  0.12684165  0.21637626  0.00717936    -0.26400
C1031       C  0.11462191  0.18571460  0.02974459    -0.15600
C1032       C  0.10930567  0.16892838  0.49233002     0.36700
N1033       N  0.11452602  0.13981084  0.49513368    -0.89900
H1034       H  0.08088756  0.15038779  0.43738605     0.17800
H1035       H  0.14930904  0.24024988  0.01763454     0.17800
N1036       N  0.12354125  0.24802562  0.94812498    -0.88900
H1037       H  0.12839613  0.13983994  0.46968317     0.35200
H1038       H  0.04657504  0.11393681  0.04488977     0.40300
H1039       H  0.13256382  0.24431631  0.92056314     0.39900
H1040       H  0.14501229  0.26862323  0.96242397     0.34800
C1041       C  0.90183576  0.12088561  0.48359468    -0.26900
C1042       C  0.93672570  0.13017268  0.48966194    -0.15000
C1043       C  0.94741789  0.12408312  0.02474270     0.35600
C1044       C  0.92105828  0.10376244  0.05303960    -0.26400
C1045       C  0.88538093  0.08668338  0.04275733    -0.15600
C1046       C  0.87531945  0.09893904  0.51056521     0.36700
N1047       N  0.84040488  0.09044902  0.50157590    -0.89900
H1048       H  0.89495970  0.13009075  0.45691915     0.17800
H1049       H  0.92843514  0.10055544  0.08309543     0.17800
N1050       N  0.98360878  0.14055397  0.03565829    -0.88900
H1051       H  0.83118755  0.09916351  0.52509451     0.35200
H1052       H  0.82469870  0.06342264  0.49887205     0.40300
H1053       H  0.99482170  0.12889047  0.01888265     0.39900
H1054       H  0.98616409  0.13587915  0.06594658     0.34800
C1055       C  0.91945843  0.07844347  0.26934541    -0.26900
C1056       C  0.90626784  0.09401339  0.29503449    -0.15000
C1057       C  0.87466182  0.09250587  0.28524228     0.35600
C1058       C  0.85797802  0.07725236  0.24898204    -0.26400
C1059       C  0.87213903  0.06313769  0.22269199    -0.15600
C1060       C  0.90285830  0.06332314  0.23320055     0.36700
N1061       N  0.91812303  0.04953068  0.20641119    -0.89900
H1062       H  0.94391028  0.07972320  0.27602742     0.17800
H1063       H  0.83376177  0.07620267  0.24151002     0.17800
N1064       N  0.85959412  0.10666320  0.31175375    -0.88900
H1065       H  0.92012141  0.03013016  0.22172978     0.35200
H1066       H  0.94333867  0.06950165  0.19919946     0.40300
H1067       H  0.83451943  0.08672025  0.31951013     0.39900
H1068       H  0.85726069  0.12568435  0.29600909     0.34800
C1069       C  0.96285834  0.38670093  0.14293284    -0.26900
C1070       C  0.96631964  0.39027228  0.10047420    -0.15000
C1071       C  0.99955622  0.41324086  0.08427545     0.35600
C1072       C  0.02837562  0.42943087  0.11004468    -0.26400
C1073       C  0.02527231  0.42272470  0.15191128    -0.15600
C1074       C  0.99189980  0.40246492  0.16871064     0.36700
N1075       N  0.98779583  0.39567921  0.21126128    -0.89900
H1076       H  0.93742590  0.36993726  0.15618314     0.17800
H1077       H  0.05398335  0.44552331  0.09675354     0.17800
N1078       N  0.00537819  0.41895906  0.04185524    -0.88900
H1079       H  0.96155438  0.37894965  0.21854654     0.35200
H1080       H  0.99527736  0.41926299  0.22571291     0.40300
H1081       H  0.99049527  0.42933658  0.03111177     0.39900
H1082       H  0.99721137  0.39506267  0.02782694     0.34800
C1083       C  0.04501851  0.33125227  0.25623797    -0.26900
C1084       C  0.08140901  0.34958577  0.25405499    -0.15000
C1085       C  0.10056041  0.34180744  0.28171832     0.35600
C1086       C  0.08271265  0.31522131  0.31069563    -0.26400
C1087       C  0.04613597  0.29725487  0.31313888    -0.15600
C1088       C  0.02724828  0.30599907  0.28591104     0.36700
N1089       N  0.98990656  0.28964066  0.28913488    -0.93500
H1090       H  0.03046324  0.33871848  0.23658966     0.17800
H1091       H  0.09726453  0.30832963  0.33102060     0.17800
N1092       N  0.13798908  0.36180814  0.28106955    -0.88900
H1093       H  0.98000192  0.29888715  0.26692829     0.35200
H1094       H  0.98431423  0.29683576  0.31683655     0.40300
H1095       H  0.14624430  0.35721119  0.25349664     0.39900
H1096       H  0.14826552  0.35313147  0.30347952     0.34800
C1097       C  0.18976398  0.44230020  0.33680714    -0.26900
C1098       C  0.20187765  0.47482565  0.31815495    -0.15000
C1099       C  0.23540429  0.50239148  0.32821728     0.35600
C1100       C  0.25622637  0.49711623  0.35583933    -0.26400
C1101       C  0.24492325  0.46436590  0.37341845    -0.15600
C1102       C  0.21098577  0.43670235  0.36409613     0.36700
N1103       N  0.19802785  0.40320963  0.38260577    -0.89900
H1104       H  0.16407478  0.42097257  0.32921787     0.17800
H1105       H  0.28182790  0.51883108  0.36305946     0.17800
N1106       N  0.24841962  0.53606912  0.31048528    -0.88900
H1107       H  0.17278334  0.38573766  0.37256928     0.35200
H1108       H  0.19610717  0.40621283  0.41354505     0.40300
H1109       H  0.27168471  0.54282324  0.29545906     0.39900
H1110       H  0.25415212  0.55401176  0.33367664     0.34800
C1111       C  0.21072423  0.43317670  0.09903202    -0.26900
C1112       C  0.22403032  0.46376979  0.12201698    -0.15000
C1113       C  0.25648498  0.49293852  0.11113257     0.35600
C1114       C  0.27334704  0.49159709  0.07652709    -0.26400
C1115       C  0.25861829  0.46206509  0.05151187    -0.15600
C1116       C  0.22737525  0.43198942  0.06398689     0.36700
N1117       N  0.20184885  0.40387747  0.53434642    -0.89900
H1118       H  0.18608390  0.41034481  0.10703604     0.17800
H1119       H  0.29789038  0.51461179  0.06870094     0.17800
N1120       N  0.27308912  0.52444719  0.13416443    -0.88900
H1121       H  0.21416998  0.38935442  0.53130563     0.35200
H1122       H  0.20091976  0.41434968  0.50651824     0.40300
H1123       H  0.27453738  0.51830690  0.16420907     0.39900
H1124       H  0.25865254  0.53691097  0.13200873     0.34800
C1125       C  0.15549271  0.55794294  0.03005273    -0.26900
C1126       C  0.13149763  0.56904503  0.03836712    -0.15000
C1127       C  0.11106062  0.55661846  0.07383932     0.35600
C1128       C  0.11640907  0.53525576  0.10072272    -0.26400
C1129       C  0.14137952  0.52558439  0.09305639    -0.15600
C1130       C  0.16044251  0.53635789  0.05676216     0.36700
N1131       N  0.18587393  0.52684792  0.04701452    -0.89900
H1132       H  0.17102053  0.56652643  0.00277671     0.17800
H1133       H  0.10162358  0.52682358  0.12854921     0.17800
N1134       N  0.08574927  0.56651202  0.08328095    -0.88900
H1135       H  0.17337149  0.49969747  0.04606585     0.35200
H1136       H  0.20446787  0.53568465  0.06997536     0.40300
H1137       H  0.09932435  0.59325796  0.08906752     0.39900
H1138       H  0.07232749  0.55434303  0.10975235     0.34800
C1139       C  0.10404314  0.54472138  0.30498472    -0.26900
C1140       C  0.13665921  0.55428725  0.28775614    -0.15000
C1141       C  0.16685684  0.58320505  0.30341842     0.35600
C1142       C  0.16431572  0.59975238  0.33781361    -0.26400
C1143       C  0.13207710  0.58843283  0.35707107    -0.15600
C1144       C  0.10137432  0.56162162  0.33928317     0.36700
N1145       N  0.06771440  0.55139024  0.35610179    -0.89900
H1146       H  0.08050507  0.52304987  0.29264920     0.17800
H1147       H  0.18815904  0.62111967  0.35003893     0.17800
N1148       N  0.20036829  0.59541471  0.28531634    -0.88900
H1149       H  0.04793577  0.53080170  0.33977557     0.35200
H1150       H  0.06370075  0.57241709  0.35281326     0.40300
H1151       H  0.21678493  0.59416955  0.30688387     0.39900
H1152       H  0.21066431  0.62151521  0.27728425     0.34800
Fe1153     Fe  0.18023479  0.50945509  0.70520733     1.65800
Fe1154     Fe  0.12436499  0.43319938  0.66393562     1.73200
Fe1155     Fe  0.10490153  0.45705823  0.75131702     1.54400
O1156       O  0.14872914  0.47136456  0.79094752    -0.82300
O1157       O  0.07594829  0.42523168  0.65681877    -0.80600
O1158       O  0.19617200  0.49027672  0.75107107    -0.84800
O1159       O  0.16778188  0.53518510  0.74802778    -0.79700
O1160       O  0.09481092  0.40802794  0.75980518    -0.81400
O1161       O  0.13921901  0.47543827  0.62243158    -0.84200
C1162       C  0.13886599  0.53154728  0.75852263     0.96600
C1163       C  0.18020900  0.47770866  0.78436740     1.04000
O1164       O  0.13579981  0.46595284  0.70684605    -1.13200
O1165       O  0.17189926  0.43734674  0.66717088    -0.75600
O1166       O  0.20330342  0.49387063  0.66235422    -0.79100
O1167       O  0.11106728  0.50538449  0.74725651    -0.79800
C1168       C  0.19838121  0.46409823  0.65422962     0.95500
O1169       O  0.16051215  0.52480515  0.65910800    -0.77700
O1170       O  0.10781360  0.39023111  0.70329095    -0.82900
C1171       C  0.05503655  0.43067773  0.67662494     0.98100
C1172       C  0.09849168  0.38589175  0.74030551     1.04000
O1173       O  0.06080400  0.44122141  0.71327284    -0.78600
C1174       C  0.14688110  0.50738852  0.62699058     1.02300
Fe1175     Fe  0.99408151  0.14158091  0.87326919     1.65800
Fe1176     Fe  0.01799224  0.21807099  0.91532580     1.73200
Fe1177     Fe  0.96885110  0.19276096  0.83225500     1.54400
O1178       O  0.99813012  0.18067864  0.78980473    -0.82300
O1179       O  0.97924392  0.22881510  0.92385138    -0.80600
O1180       O  0.02839946  0.16168698  0.82614933    -0.84800
O1181       O  0.95553044  0.11618052  0.83122253    -0.79700
O1182       O  0.00635113  0.24290294  0.82368746    -0.81400
O1183       O  0.98946780  0.17630861  0.95721708    -0.84200
C1184       C  0.92942065  0.11877795  0.82288694     0.96600
C1185       C  0.02357995  0.17457575  0.79400542     1.04000
O1186       O  0.99392141  0.18489940  0.87353371    -1.13200
O1187       O  0.06050950  0.21201505  0.91268947    -0.75600
O1188       O  0.03259843  0.15551527  0.91515967    -0.79100
O1189       O  0.92719302  0.14359696  0.83674693    -0.79800
C1190       C  0.05801153  0.18440281  0.92553910     0.95500
O1191       O  0.95968002  0.12682376  0.92041918    -0.77700
O1192       O  0.04490442  0.25912647  0.87351478    -0.82900
C1193       C  0.94986248  0.21973009  0.90862692     0.98100
C1194       C  0.03571941  0.26378787  0.83862137     1.04000
O1195       O  0.94115162  0.20574966  0.87376836    -0.78600
C1196       C  0.96414119  0.14452144  0.95257230     1.02300
Fe1197     Fe  0.81064149  0.32604264  0.53572880     1.65800
Fe1198     Fe  0.86279353  0.30374201  0.58188228     1.73200
Fe1199     Fe  0.88988496  0.34711674  0.99752060     1.54400
O1200       O  0.84892130  0.31954693  0.95464570    -0.82300
O1201       O  0.91254511  0.34206583  0.59085418    -0.80600
O1202       O  0.79866149  0.29030892  0.99017882    -0.84800
O1203       O  0.82888840  0.36388745  0.99367616    -0.79700
O1204       O  0.89801623  0.30655457  0.99150295    -0.81400
O1205       O  0.84937723  0.33323792  0.62168313    -0.84200
C1206       C  0.85848380  0.38936594  0.98535505     0.96600
C1207       C  0.81697777  0.29445712  0.95869220     1.04000
O1208       O  0.85473989  0.32695093  0.53836946    -1.13200
O1209       O  0.81426152  0.26099626  0.57804213    -0.75600
O1210       O  0.78383324  0.28662029  0.57674977    -0.79100
O1211       O  0.88550538  0.39055576  0.99851226    -0.79800
C1212       C  0.78752277  0.26169761  0.58784656     0.95500
O1213       O  0.82746428  0.35974059  0.58336227    -0.77700
O1214       O  0.87694106  0.27579416  0.54269825    -0.82900
C1215       C  0.93460661  0.37027741  0.57444467     0.98100
C1216       C  0.89020495  0.28304267  0.50735836     1.04000
O1217       O  0.93029085  0.37822441  0.53869637    -0.78600
C1218       C  0.84054846  0.35657705  0.61629436     1.02300
Fe1219     Fe  0.82069735  0.48424687  0.78952562     1.65800
Fe1220     Fe  0.86466673  0.57214034  0.79662151     1.73200
Fe1221     Fe  0.90877563  0.52812566  0.78487264     1.54400
O1222       O  0.89119279  0.48844243  0.82768254    -0.82300
O1223       O  0.90277104  0.59767329  0.75409925    -0.80600
O1224       O  0.83500270  0.46951668  0.84050293    -0.84800
O1225       O  0.83749030  0.45717089  0.75462426    -0.79700
O1226       O  0.93117089  0.56302962  0.83075930    -0.81400
O1227       O  0.82742863  0.55621955  0.75110895    -0.84200
C1228       C  0.86399252  0.46385813  0.73379372     0.96600
C1229       C  0.86384941  0.47174980  0.84938318     1.04000
O1230       O  0.86509123  0.52860091  0.79017760    -1.13200
O1231       O  0.82704356  0.55399084  0.84194829    -0.75600
O1232       O  0.79201537  0.49952733  0.82399236    -0.79100
O1233       O  0.89220900  0.49284838  0.73699914    -0.79800
C1234       C  0.79803261  0.52581870  0.84448809     0.95500
O1235       O  0.80688004  0.49962813  0.73875251    -0.77700
O1236       O  0.90320204  0.59232858  0.84050021    -0.82900
C1237       C  0.92743665  0.59535453  0.73828347     0.98100
C1238       C  0.92787625  0.58660509  0.84791983     1.04000
O1239       O  0.93194161  0.56967148  0.74416440    -0.78600
C1240       C  0.80998264  0.52881725  0.72982227     1.02300
Fe1241     Fe  0.17392191  0.66013436  0.95704773     1.65800
Fe1242     Fe  0.13019141  0.70255805  0.95788654     1.73200
Fe1243     Fe  0.08738628  0.61486335  0.95968032     1.54400
O1244       O  0.10756214  0.59302365  0.91952046    -0.82300
O1245       O  0.10148120  0.69024026  0.50701060    -0.80600
O1246       O  0.16093117  0.63592108  0.90327440    -0.84800
O1247       O  0.15346131  0.61236171  0.48737156    -0.79700
O1248       O  0.07154468  0.62956112  0.91016165    -0.81400
O1249       O  0.17478771  0.72656033  0.99403196    -0.84200
C1250       C  0.12760422  0.59416768  0.51044268     0.96600
C1251       C  0.13373079  0.60714702  0.89552646     1.04000
O1252       O  0.13015998  0.65909607  0.95875372    -1.13200
O1253       O  0.16002620  0.71879357  0.90544298    -0.75600
O1254       O  0.20074373  0.70785876  0.92677470    -0.79100
O1255       O  0.10043258  0.59678492  0.50875609    -0.79800
C1256       C  0.19084373  0.72381581  0.90351241     0.95500
O1257       O  0.18387103  0.68407468  0.50946084    -0.77700
O1258       O  0.08266335  0.68233707  0.92600738    -0.82900
C1259       C  0.07118012  0.66447085  0.51287080     0.98100
C1260       C  0.06234585  0.65198213  0.91198642     1.04000
O1261       O  0.06081644  0.63465665  0.49666897    -0.78600
C1262       C  0.18687711  0.71347429  0.51544798     1.02300
Fe1263     Fe  0.99282290  0.83709814  0.62338626     1.65800
Fe1264     Fe  0.04046627  0.79834273  0.62335762     1.73200
Fe1265     Fe  0.95230564  0.75072435  0.61695921     1.54400
O1266       O  0.92608907  0.76745332  0.65534501    -0.82300
O1267       O  0.02893371  0.76889725  0.57235472    -0.80600
O1268       O  0.96591536  0.82074278  0.67541808    -0.84800
O1269       O  0.94658200  0.81686956  0.59051575    -0.79700
O1270       O  0.96513227  0.73318338  0.66698332    -0.81400
O1271       O  0.06237122  0.84229099  0.58567969    -0.84200
C1272       C  0.93163655  0.79220625  0.56526054     0.96600
C1273       C  0.93723260  0.79261368  0.68043868     1.04000
O1274       O  0.99534843  0.79508439  0.62149384    -1.13200
O1275       O  0.05650150  0.82961527  0.67481543    -0.75600
O1276       O  0.03862579  0.86564115  0.65630908    -0.79100
O1277       O  0.93674651  0.76656003  0.56581228    -0.79800
C1278       C  0.05824543  0.85897718  0.67754304     0.95500
O1279       O  0.01954684  0.85278625  0.57126564    -0.77700
O1280       O  0.02171018  0.75202326  0.65775149    -0.82900
C1281       C  0.00519347  0.73721604  0.56988342     0.98100
C1282       C  0.99127336  0.72919864  0.67026154     1.04000
O1283       O  0.97418958  0.72666334  0.58217010    -0.78600
C1284       C  0.04870432  0.85565809  0.56342430     1.02300
Fe1285     Fe  0.32739725  0.80975090  0.70700627     1.65800
Fe1286     Fe  0.30574900  0.86350716  0.66392154     1.73200
Fe1287     Fe  0.35091563  0.88540405  0.75016857     1.54400
O1288       O  0.32135813  0.84251835  0.79083567    -0.82300
O1289       O  0.34580391  0.91244864  0.65647747    -0.80600
O1290       O  0.29197070  0.79413969  0.75273430    -0.84800
O1291       O  0.36541827  0.82299582  0.75013177    -0.79700
O1292       O  0.31211196  0.89567149  0.75838784    -0.81400
O1293       O  0.33436917  0.84962882  0.62305040    -0.84200
C1294       C  0.39110612  0.85220631  0.75917387     0.96600
C1295       C  0.29588939  0.81089774  0.78540428     1.04000
O1296       O  0.32776315  0.85343736  0.70710886    -1.13200
O1297       O  0.26234742  0.81517173  0.66625727    -0.75600
O1298       O  0.28924413  0.78585635  0.66427835    -0.79100
O1299       O  0.39307023  0.87935008  0.74577782    -0.79800
C1300       C  0.26411701  0.78957813  0.65390998     0.95500
O1301       O  0.36285081  0.82975532  0.66101954    -0.77700
O1302       O  0.27877009  0.87921257  0.70354843    -0.82900
C1303       C  0.37334695  0.93350060  0.67472216     0.98100
C1304       C  0.28529379  0.89067115  0.73977707     1.04000
O1305       O  0.37936439  0.92836181  0.71098790    -0.78600
C1306       C  0.35936438  0.84313964  0.62855806     1.02300
Fe1307     Fe  0.14573980  0.99382277  0.87309207     1.65800
Fe1308     Fe  0.22255314  0.02094576  0.82903737     1.73200
Fe1309     Fe  0.20214229  0.97588317  0.91525432     1.54400
O1310       O  0.18708074  0.00371629  0.95643325    -0.82300
O1311       O  0.23531351  0.98377156  0.82131571    -0.80600
O1312       O  0.16446690  0.02960230  0.91854300    -0.84800
O1313       O  0.12325828  0.95578142  0.91655372    -0.79700
O1314       O  0.25054920  0.01663692  0.92243706    -0.81400
O1315       O  0.17994000  0.98966087  0.78886648    -0.84200
C1316       C  0.12870512  0.93150849  0.92533755     0.96600
C1317       C  0.17871945  0.02745337  0.95100603     1.04000
O1318       O  0.19091868  0.99709645  0.87244119    -1.13200
O1319       O  0.21365974  0.06150326  0.83167246    -0.75600
O1320       O  0.15697448  0.03100840  0.82985709    -0.79100
O1321       O  0.15490810  0.93163106  0.91175544    -0.79800
C1322       C  0.18522985  0.05734467  0.81921395     0.95500
O1323       O  0.13155876  0.95846816  0.82727558    -0.77700
O1324       O  0.26521937  0.05083760  0.86833823    -0.82900
C1325       C  0.22998554  0.95657260  0.83930994     0.98100
C1326       C  0.27089798  0.04456941  0.90434184     1.04000
O1327       O  0.21850612  0.94969402  0.87552574    -0.78600
C1328       C  0.14857895  0.96359354  0.79441345     1.02300
Fe1329     Fe  0.51499127  0.17729441  0.54130143     1.65800
Fe1330     Fe  0.43850949  0.12345993  0.58364154     1.73200
Fe1331     Fe  0.45753196  0.10178079  0.99884588     1.54400
O1332       O  0.47140960  0.14412916  0.95751732    -0.82300
O1333       O  0.43002085  0.07505694  0.59267617    -0.80600
O1334       O  0.49067376  0.19284027  0.99511826    -0.84800
O1335       O  0.53504580  0.16435721  0.99793804    -0.79700
O1336       O  0.40834132  0.09170643  0.99122367    -0.81400
O1337       O  0.48101602  0.13908582  0.62508602    -0.84200
C1338       C  0.53134282  0.13535058  0.98838425     0.96600
C1339       C  0.47776388  0.17566492  0.96259629     1.04000
O1340       O  0.47116112  0.13338630  0.54092954    -1.13200
O1341       O  0.44338903  0.17118144  0.57850699    -0.75600
O1342       O  0.49996690  0.20124697  0.58313996    -0.79100
O1343       O  0.50599701  0.10786552  0.00176794    -0.79800
C1344       C  0.47046434  0.19729474  0.59127105     0.95500
O1345       O  0.52980927  0.15781411  0.58752970    -0.77700
O1346       O  0.39553535  0.10637050  0.54401392    -0.82900
C1347       C  0.43552769  0.05367403  0.57406646     0.98100
C1348       C  0.39117389  0.09571114  0.50752258     1.04000
O1349       O  0.44623027  0.05852634  0.53750950    -0.78600
C1350       C  0.51258894  0.14538251  0.62010387     1.02300
Fe1351     Fe  0.83462852  0.99129015  0.62293414     1.65800
Fe1352     Fe  0.79348188  0.03590872  0.62477382     1.73200
Fe1353     Fe  0.74760288  0.94821416  0.62134578     1.54400
O1354       O  0.76872294  0.92564538  0.58289375    -0.82300
O1355       O  0.76243600  0.01860298  0.67450015    -0.80600
O1356       O  0.82277781  0.96840972  0.56872803    -0.84800
O1357       O  0.81320984  0.94295224  0.65211203    -0.79700
O1358       O  0.73331950  0.96372534  0.57068696    -0.81400
O1359       O  0.83575296  0.05702175  0.66433079    -0.84200
C1360       C  0.78688741  0.92604961  0.67508786     0.96600
C1361       C  0.79608201  0.93944704  0.56056417     1.04000
O1362       O  0.79169805  0.99188195  0.62234573    -1.13200
O1363       O  0.82631901  0.05581648  0.57537206    -0.75600
O1364       O  0.86377002  0.03953631  0.59361556    -0.79100
O1365       O  0.76052012  0.93008645  0.67287869    -0.79800
C1366       C  0.85614614  0.05866576  0.57254282     0.95500
O1367       O  0.84602036  0.01403308  0.67742930    -0.77700
O1368       O  0.74962137  0.01848555  0.58693976    -0.82900
C1369       C  0.73027866  0.99688689  0.67160684     0.98100
C1370       C  0.73022571  0.99038539  0.56765415     1.04000
O1371       O  0.71966925  0.96725366  0.65511853    -0.78600
C1372       C  0.84876934  0.04287647  0.68613612     1.02300
Fe1373     Fe  0.48417087  0.81771238  0.95771364     1.65800
Fe1374     Fe  0.57130599  0.86118111  0.95342137     1.73200
Fe1375     Fe  0.52705366  0.90435847  0.95988914     1.54400
O1376       O  0.48328152  0.88417715  0.92202415    -0.82300
O1377       O  0.58774595  0.88945067  0.50634873    -0.80600
O1378       O  0.47166535  0.83099280  0.90518335    -0.84800
O1379       O  0.45585221  0.83435617  0.48733807    -0.79700
O1380       O  0.55654188  0.92125630  0.90883549    -0.81400
O1381       O  0.55167910  0.81776130  0.99196500    -0.84200
C1382       C  0.46403510  0.85973758  0.51119473     0.96600
C1383       C  0.47044354  0.85821451  0.89794866     1.04000
O1384       O  0.52791439  0.86145716  0.95756245    -1.13200
O1385       O  0.55481546  0.82943937  0.90227741    -0.75600
O1386       O  0.50277555  0.79009531  0.92540339    -0.79100
O1387       O  0.49475240  0.88619548  0.51132430    -0.79800
C1388       C  0.52836882  0.79870647  0.90168829     0.95500
O1389       O  0.49551415  0.80141852  0.50699887    -0.77700
O1390       O  0.59742853  0.90758760  0.91866536    -0.82900
C1391       C  0.59374170  0.92033722  0.50855518     0.98100
C1392       C  0.58800102  0.92886000  0.90686241     1.04000
O1393       O  0.57227644  0.92884883  0.49516319    -0.78600
C1394       C  0.52297356  0.80061026  0.51455281     1.02300
Fe1395     Fe  0.66138505  0.17103747  0.79147741     1.65800
Fe1396     Fe  0.61765164  0.08405687  0.78983398     1.73200
Fe1397     Fe  0.70588107  0.12905872  0.78890716     1.54400
O1398       O  0.72664980  0.17098794  0.74830425    -0.82300
O1399       O  0.63241684  0.06674714  0.83822528    -0.80600
O1400       O  0.68477035  0.18352746  0.73720985    -0.84800
O1401       O  0.70938556  0.19968439  0.82058887    -0.79700
O1402       O  0.69076408  0.09723048  0.74006881    -0.81400
O1403       O  0.59551314  0.10355238  0.83037827    -0.84200
C1404       C  0.72864443  0.19189972  0.84088881     0.96600
C1405       C  0.71268171  0.18461637  0.72705464     1.04000
O1406       O  0.66170296  0.12770002  0.79036259    -1.13200
O1407       O  0.59990720  0.09907844  0.74048663    -0.75600
O1408       O  0.61354913  0.15135810  0.76231587    -0.79100
O1409       O  0.72537371  0.16195890  0.83831832    -0.79800
C1410       C  0.59655566  0.12569545  0.73886252     0.95500
O1411       O  0.63736906  0.15783009  0.84546642    -0.77700
O1412       O  0.63504509  0.05801741  0.75172509    -0.82900
C1413       C  0.65952208  0.06469958  0.84368210     0.98100
C1414       C  0.66417652  0.06739151  0.73456764     1.04000
O1415       O  0.68867827  0.08524312  0.82667144    -0.78600
C1416       C  0.60828236  0.13070993  0.85254571     1.02300
Fe1417     Fe  0.50392728  0.32508949  0.78990343     1.65800
Fe1418     Fe  0.46070647  0.36799663  0.78734831     1.73200
Fe1419     Fe  0.41682962  0.27982070  0.78986999     1.54400
O1420       O  0.43739916  0.25811076  0.75007331    -0.82300
O1421       O  0.42975532  0.35446770  0.83692893    -0.80600
O1422       O  0.49164285  0.30077674  0.73659133    -0.84800
O1423       O  0.48476990  0.27777107  0.82068739    -0.79700
O1424       O  0.39955980  0.29325956  0.74014213    -0.81400
O1425       O  0.50378358  0.39149188  0.82647410    -0.84200
C1426       C  0.45833556  0.25987343  0.84307411     0.96600
C1427       C  0.46479494  0.27212333  0.72794406     1.04000
O1428       O  0.46005724  0.32424961  0.78933682    -1.13200
O1429       O  0.49304413  0.38526976  0.73680307    -0.75600
O1430       O  0.53201013  0.37254462  0.75936986    -0.79100
O1431       O  0.43130353  0.26249742  0.84024189    -0.79800
C1432       C  0.52381460  0.39010912  0.73650798     0.95500
O1433       O  0.51585133  0.35004959  0.84301180    -0.77700
O1434       O  0.41490034  0.34829462  0.75213356    -0.82900
C1435       C  0.40041244  0.32747585  0.84367195     0.98100
C1436       C  0.39371953  0.31814087  0.73797076     1.04000
O1437       O  0.39098709  0.29804248  0.82733886    -0.78600
C1438       C  0.51818296  0.37915558  0.84914007     1.02300
Fe1439     Fe  0.14759719  0.14795024  0.61865909     1.65800
Fe1440     Fe  0.23496642  0.19090994  0.61996341     1.73200
Fe1441     Fe  0.19095144  0.23423611  0.62505839     1.54400
O1442       O  0.14867916  0.21603011  0.58592925    -0.82300
O1443       O  0.25199397  0.21971359  0.67142574    -0.80600
O1444       O  0.13754551  0.16376305  0.56607302    -0.84800
O1445       O  0.11941181  0.16608014  0.65105486    -0.79700
O1446       O  0.22170612  0.25151450  0.57525105    -0.81400
O1447       O  0.21348800  0.14649686  0.65675395    -0.84200
C1448       C  0.12744952  0.19134125  0.67501427     0.96600
C1449       C  0.13689250  0.19144210  0.56015255     1.04000
O1450       O  0.19152284  0.19127887  0.62183879    -1.13200
O1451       O  0.22089958  0.16082714  0.56758268    -0.75600
O1452       O  0.16728496  0.12140891  0.58613572    -0.79100
O1453       O  0.15809483  0.21792694  0.67502571    -0.79800
C1454       C  0.19417119  0.13046354  0.56444592     0.95500
O1455       O  0.15878598  0.13304249  0.67095797    -0.77700
O1456       O  0.26264776  0.23836659  0.58741899    -0.82900
C1457       C  0.25594341  0.24957847  0.67723200     0.98100
C1458       C  0.25327269  0.25949958  0.57492878     1.04000
O1459       O  0.23564783  0.25888157  0.66193402    -0.78600
C1460       C  0.18603365  0.13192785  0.67876805     1.02300
Fe1461     Fe  0.33279611  0.50487634  0.95484264     1.65800
Fe1462     Fe  0.37584091  0.46177396  0.96114788     1.73200
Fe1463     Fe  0.28798089  0.41825541  0.95269771     1.54400
O1464       O  0.26415074  0.43882797  0.98868493    -0.82300
O1465       O  0.36389813  0.43008598  0.91233604    -0.80600
O1466       O  0.30479048  0.48856192  0.51274969    -0.84800
O1467       O  0.28604047  0.48533637  0.92238459    -0.79700
O1468       O  0.29922339  0.39909132  0.50422674    -0.81400
O1469       O  0.39989670  0.50345434  0.92074714    -0.84200
C1470       C  0.26938166  0.45958406  0.89881853     0.96600
C1471       C  0.27582594  0.46077880  0.51839572     1.04000
O1472       O  0.33233182  0.46127064  0.95615546    -1.13200
O1473       O  0.39343883  0.49213993  0.51032854    -0.75600
O1474       O  0.37822452  0.53074344  0.49341451    -0.79100
O1475       O  0.27385338  0.43356836  0.90012524    -0.79800
C1476       C  0.39665263  0.52204060  0.51408683     0.95500
O1477       O  0.35954479  0.51663352  0.90245481    -0.77700
O1478       O  0.35520130  0.41559096  0.49439629    -0.82900
C1479       C  0.33826485  0.39946901  0.90860533     0.98100
C1480       C  0.32541490  0.39563380  0.51057884     1.04000
O1481       O  0.30766492  0.39102404  0.92049964    -0.78600
C1482       C  0.38756012  0.51647168  0.89600380     1.02300
Fe1483     Fe  0.48133799  0.65900069  0.70763741     1.65800
Fe1484     Fe  0.54024380  0.64407202  0.74951396     1.73200
Fe1485     Fe  0.55851028  0.68871571  0.66382896     1.54400
O1486       O  0.51651638  0.65506264  0.62384540    -0.82300
O1487       O  0.58871922  0.68547148  0.75486947    -0.80600
O1488       O  0.46843491  0.62325202  0.66248735    -0.84800
O1489       O  0.49089801  0.69534260  0.66309909    -0.79700
O1490       O  0.57487304  0.65410719  0.65686907    -0.81400
O1491       O  0.52520599  0.67206833  0.79033497    -0.84200
C1492       C  0.51894170  0.72231790  0.65318753     0.96600
C1493       C  0.48556307  0.62826738  0.62967141     1.04000
O1494       O  0.52724766  0.66387285  0.70698199    -1.13200
O1495       O  0.49366402  0.59919738  0.74874877    -0.75600
O1496       O  0.45996812  0.62131199  0.75205211    -0.79100
O1497       O  0.54706732  0.72723318  0.66706993    -0.79800
C1498       C  0.46712094  0.59845385  0.76219618     0.95500
O1499       O  0.49946967  0.69534051  0.75282781    -0.77700
O1500       O  0.55555761  0.61768701  0.70892220    -0.82900
C1501       C  0.60634580  0.71481374  0.73826210     0.98100
C1502       C  0.56799285  0.62572607  0.67320244     1.04000
O1503       O  0.59966378  0.72108109  0.70292398    -0.78600
C1504       C  0.51507864  0.69446794  0.78481714     1.02300
Fe1505     Fe  0.66217808  0.47712030  0.54333146     1.65800
Fe1506     Fe  0.63764014  0.52641692  0.99527345     1.73200
Fe1507     Fe  0.68439269  0.55405194  0.58313393     1.54400
O1508       O  0.65460897  0.51201046  0.62515423    -0.82300
O1509       O  0.67673480  0.57562085  0.98627551    -0.80600
O1510       O  0.62619195  0.46250513  0.58842312    -0.84800
O1511       O  0.70003265  0.49213306  0.58735143    -0.79700
O1512       O  0.64539640  0.56428997  0.58884149    -0.81400
O1513       O  0.66707013  0.51243663  0.95589427    -0.84200
C1514       C  0.72553813  0.52172318  0.59566057     0.96600
C1515       C  0.62947046  0.48007814  0.62023286     1.04000
O1516       O  0.66215056  0.52065874  0.54108718    -1.13200
O1517       O  0.59565959  0.47768063  0.00057311    -0.75600
O1518       O  0.62406064  0.44995756  0.99764563    -0.79100
O1519       O  0.72706708  0.54857769  0.58176894    -0.79800
C1520       C  0.59845895  0.45298757  0.98727692     0.95500
O1521       O  0.69768791  0.49631968  0.99560439    -0.77700
O1522       O  0.61149573  0.54423959  0.53468574    -0.82900
C1523       C  0.70572136  0.60015802  0.50559276     0.98100
C1524       C  0.61828641  0.55782982  0.56986311     1.04000
O1525       O  0.71236912  0.59608414  0.54211001    -0.78600
C1526       C  0.69309533  0.50771448  0.96223563     1.02300
Fe1527     Fe  0.84323660  0.84179220  0.86859451     1.65800
Fe1528     Fe  0.76866264  0.79397304  0.91679274     1.73200
Fe1529     Fe  0.78338405  0.76540236  0.83030600     1.54400
O1530       O  0.79633366  0.80706514  0.78817271    -0.82300
O1531       O  0.75327548  0.74317735  0.92525301    -0.80600
O1532       O  0.82231870  0.85742334  0.82370835    -0.84800
O1533       O  0.86337450  0.82473567  0.82417958    -0.79700
O1534       O  0.73436720  0.75711323  0.82761096    -0.81400
O1535       O  0.81236313  0.80491863  0.95493459    -0.84200
C1536       C  0.85711551  0.79479045  0.81455168     0.96600
C1537       C  0.80593681  0.83966571  0.79256457     1.04000
O1538       O  0.79808590  0.79955658  0.87210017    -1.13200
O1539       O  0.77880203  0.84349582  0.91203899    -0.75600
O1540       O  0.83502309  0.86974841  0.91261036    -0.79100
O1541       O  0.83037168  0.76817702  0.82730044    -0.79800
C1542       C  0.80725526  0.86813158  0.92380699     0.95500
O1543       O  0.85899619  0.82151614  0.91394020    -0.77700
O1544       O  0.72621650  0.78342440  0.87971064    -0.82900
C1545       C  0.75878692  0.72102680  0.90849859     0.98100
C1546       C  0.71771309  0.76930181  0.84505699     1.04000
O1547       O  0.76970384  0.72457918  0.87211198    -0.78600
C1548       C  0.84330108  0.80994380  0.94772990     1.02300
C1549       C  0.73870759  0.66277664  0.00062553    -0.26900
C1550       C  0.72604030  0.63033069  0.98270385    -0.15000
C1551       C  0.73046711  0.62861526  0.94062046     0.35600
C1552       C  0.74300972  0.65863367  0.91664910    -0.26400
C1553       C  0.75192269  0.69063674  0.93407334    -0.15600
C1554       C  0.75217333  0.69305521  0.97694065     0.36700
N1555       N  0.76542984  0.72621358  0.99638328    -0.89900
H1556       H  0.73623112  0.66432841  0.03290125     0.17800
H1557       H  0.74410697  0.65647753  0.88426544     0.17800
N1558       N  0.72119503  0.59606149  0.92198177    -0.88900
H1559       H  0.79214733  0.74073966  0.99028215     0.35200
H1560       H  0.76296642  0.72332242  0.02765776     0.40300
H1561       H  0.73378264  0.59597024  0.40119127     0.39900
H1562       H  0.70223630  0.59075527  0.90016837     0.34800
C1563       C  0.62742342  0.73949830  0.80558876    -0.26900
C1564       C  0.63453268  0.74126464  0.76390668    -0.15000
C1565       C  0.66918050  0.76158753  0.75073455     0.35600
C1566       C  0.69593958  0.77524048  0.77934612    -0.26400
C1567       C  0.68893902  0.76765389  0.82088375    -0.15600
C1568       C  0.65404764  0.75166468  0.83435076     0.36700
N1569       N  0.64415910  0.74404724  0.87597473    -0.89900
H1570       H  0.60062583  0.72497934  0.81606622     0.17800
H1571       H  0.72268216  0.78863550  0.76863922     0.17800
N1572       N  0.67812942  0.76611906  0.70886910    -0.88900
H1573       H  0.63109880  0.75715837  0.88391215     0.35200
H1574       H  0.66569825  0.75353311  0.89483035     0.40300
H1575       H  0.66550853  0.77782258  0.69519201     0.39900
H1576       H  0.66892564  0.74162249  0.69593051     0.34800
C1577       C  0.57435731  0.60689878  0.60475586    -0.26900
C1578       C  0.57394964  0.60195669  0.64690686    -0.15000
C1579       C  0.58053259  0.57609093  0.66123177     0.35600
C1580       C  0.59062413  0.55875717  0.63394501    -0.26400
C1581       C  0.59498382  0.56680053  0.59232844    -0.15600
C1582       C  0.58498671  0.59011367  0.57743263     0.36700
N1583       N  0.58759897  0.59963443  0.53566348    -0.89900
H1584       H  0.56779772  0.62541809  0.59261469     0.17800
H1585       H  0.59778153  0.54059555  0.64587671     0.17800
N1586       N  0.57915569  0.56816909  0.70319596    -0.88900
H1587       H  0.56250106  0.59220920  0.52571596     0.35200
H1588       H  0.59614665  0.58626971  0.51778495     0.40300
H1589       H  0.55386563  0.55941614  0.71365620     0.39900
H1590       H  0.59650173  0.59093173  0.71854874     0.34800
C1591       C  0.44322362  0.54734332  0.85859996    -0.26900
C1592       C  0.40704717  0.53325897  0.85905238    -0.15000
C1593       C  0.39016177  0.53684492  0.82487832     0.35600
C1594       C  0.41032135  0.55743080  0.79263042    -0.26400
C1595       C  0.44659215  0.57318413  0.79336638    -0.15600
C1596       C  0.46331378  0.56749887  0.82610470     0.36700
N1597       N  0.50070311  0.58375353  0.82727871    -0.89900
H1598       H  0.45610017  0.54419968  0.88454156     0.17800
H1599       H  0.39779958  0.56160103  0.76703865     0.17800
N1600       N  0.35273970  0.51983305  0.82315430    -0.88900
H1601       H  0.50863143  0.57633571  0.85317928     0.35200
H1602       H  0.51105279  0.61062065  0.82943466     0.40300
H1603       H  0.34295844  0.49298955  0.82337601     0.39900
H1604       H  0.34469646  0.52543443  0.79604226     0.34800
C1605       C  0.44119406  0.58373583  0.53112636    -0.26900
C1606       C  0.42279644  0.54837269  0.54257081    -0.15000
C1607       C  0.42855082  0.53937719  0.58140205     0.35600
C1608       C  0.45057079  0.56595849  0.60850390    -0.26400
C1609       C  0.46772566  0.60143556  0.59757300    -0.15600
C1610       C  0.46381028  0.61006644  0.55778101     0.36700
N1611       N  0.48121075  0.64541649  0.54409836    -0.89900
H1612       H  0.43762066  0.59107956  0.50119615     0.17800
H1613       H  0.45366917  0.55900783  0.63884323     0.17800
N1614       N  0.41108518  0.50351365  0.59377805    -0.88900
H1615       H  0.50809261  0.65565608  0.54645583     0.35200
H1616       H  0.47412608  0.65960435  0.56288831     0.40300
H1617       H  0.38433080  0.49445788  0.59470171     0.39900
H1618       H  0.41837926  0.50129369  0.62302267     0.34800
C1619       C  0.30658997  0.30532465  0.53775563    -0.26900
C1620       C  0.27901675  0.29617411  0.56472538    -0.15000
C1621       C  0.27429509  0.32278897  0.58106030     0.35600
C1622       C  0.29435188  0.35691374  0.56718141    -0.26400
C1623       C  0.31844940  0.36534560  0.53594899    -0.15600
C1624       C  0.32615126  0.33976803  0.52289310     0.36700
N1625       N  0.35763377  0.35496734  0.00865445    -0.89900
H1626       H  0.31513141  0.29133567  0.03837572     0.17800
H1627       H  0.28851824  0.37629724  0.57820394     0.17800
N1628       N  0.24801786  0.31504662  0.61087091    -0.88900
H1629       H  0.34989687  0.33787822  0.98425360     0.35200
H1630       H  0.37539102  0.35140427  0.02551418     0.40300
H1631       H  0.23075623  0.32235111  0.59952996     0.39900
H1632       H  0.26014043  0.33021131  0.63628984     0.34800
C1633       C  0.58836352  0.41639833  0.92764639    -0.26900
C1634       C  0.57538522  0.43135688  0.95454998    -0.15000
C1635       C  0.54347326  0.42982848  0.94601220     0.35600
C1636       C  0.52560289  0.41374489  0.91040661    -0.26400
C1637       C  0.53890263  0.39903660  0.88376579    -0.15600
C1638       C  0.57059434  0.40058334  0.89231256     0.36700
N1639       N  0.58533409  0.38698715  0.86447545    -0.89900
H1640       H  0.61324519  0.41821691  0.93306572     0.17800
H1641       H  0.50087454  0.41191890  0.90388147     0.17800
N1642       N  0.52941412  0.44461098  0.97332555    -0.88900
H1643       H  0.58867632  0.36826583  0.87946377     0.35200
H1644       H  0.60994634  0.40729438  0.85581997     0.40300
H1645       H  0.52336330  0.43049090  0.00021015     0.39900
H1646       H  0.50601214  0.44151308  0.96229901     0.34800
C1647       C  0.54152827  0.42067515  0.66991479    -0.26900
C1648       C  0.55108829  0.41649375  0.70882008    -0.15000
C1649       C  0.58686558  0.43701359  0.71994872     0.35600
C1650       C  0.61191602  0.45950747  0.69171315    -0.26400
C1651       C  0.60245302  0.46165341  0.65205332    -0.15600
C1652       C  0.56674543  0.44263701  0.64158052     0.36700
N1653       N  0.55598750  0.44544287  0.60181951    -0.89900
H1654       H  0.51443070  0.40579639  0.66084555     0.17800
H1655       H  0.63914551  0.47407912  0.70031131     0.17800
N1656       N  0.59863648  0.43589261  0.75973717    -0.88900
H1657       H  0.53826537  0.45419163  0.60425018     0.35200
H1658       H  0.54297456  0.42058585  0.58906646     0.40300
H1659       H  0.59479792  0.41110983  0.76512431     0.39900
H1660       H  0.58401254  0.44090690  0.78044048     0.34800
C1661       C  0.33080183  0.28317183  0.74889016    -0.26900
C1662       C  0.35809188  0.30862762  0.72520164    -0.15000
C1663       C  0.34987616  0.31945314  0.68893167     0.35600
C1664       C  0.31481212  0.30249088  0.67611945    -0.26400
C1665       C  0.28805365  0.27493204  0.69849940    -0.15600
C1666       C  0.29620252  0.26642603  0.73611633     0.36700
N1667       N  0.26998136  0.23990433  0.76130579    -0.89900
H1668       H  0.33668254  0.27449843  0.77666913     0.17800
H1669       H  0.30899915  0.30877476  0.64675446     0.17800
N1670       N  0.37625458  0.34518860  0.66299126    -0.88900
H1671       H  0.25860321  0.21608145  0.74625757     0.35200
H1672       H  0.25073794  0.24626083  0.76676922     0.40300
H1673       H  0.40105863  0.35535575  0.67546792     0.39900
H1674       H  0.37162095  0.36587508  0.66072546     0.34800
C1675       C  0.34522877  0.32799652  0.85243973    -0.26900
C1676       C  0.37651367  0.33304884  0.86931791    -0.15000
C1677       C  0.39040462  0.35489177  0.90316455     0.35600
C1678       C  0.37619110  0.37503214  0.91508674    -0.26400
C1679       C  0.34707816  0.37292900  0.89584194    -0.15600
C1680       C  0.33021172  0.34771424  0.86525253     0.36700
N1681       N  0.29972128  0.34301801  0.84471022    -0.89900
H1682       H  0.33432155  0.31136924  0.82645200     0.17800
H1683       H  0.38886919  0.39347046  0.93936577     0.17800
N1684       N  0.42070059  0.35932488  0.92408068    -0.88900
H1685       H  0.30643980  0.34970190  0.81449545     0.35200
H1686       H  0.29177189  0.35978409  0.85567256     0.40300
H1687       H  0.42775765  0.34159434  0.91387681     0.39900
H1688       H  0.41374133  0.35290985  0.95428196     0.34800
C1689       C  0.64041829  0.97434856  0.86739891    -0.26900
C1690       C  0.61399236  0.96549818  0.89615399    -0.15000
C1691       C  0.61105859  0.99251464  0.91455529     0.35600
C1692       C  0.63166368  0.02676988  0.90143314    -0.26400
C1693       C  0.65430751  0.03499721  0.86876446    -0.15600
C1694       C  0.66074461  0.00915804  0.85339868     0.36700
N1695       N  0.68572241  0.01774788  0.82157627    -0.89900
H1696       H  0.64359819  0.95397497  0.85405092     0.17800
H1697       H  0.62694664  0.04648606  0.91393554     0.17800
N1698       N  0.58581779  0.98514865  0.94555412    -0.88900
H1699       H  0.68658144  0.99569615  0.81272780     0.35200
H1700       H  0.71030383  0.03538299  0.83318233     0.40300
H1701       H  0.56899300  0.99357158  0.93577981     0.39900
H1702       H  0.59898057  0.99962237  0.97101403     0.34800
C1703       C  0.54967124  0.79596922  0.57752172    -0.26900
C1704       C  0.52216906  0.78084881  0.55000078    -0.15000
C1705       C  0.49264443  0.74825495  0.55836505     0.35600
C1706       C  0.49126986  0.73090614  0.59383164    -0.26400
C1707       C  0.51932070  0.74512203  0.62087802    -0.15600
C1708       C  0.54867154  0.77852881  0.61285257     0.36700
N1709       N  0.57755707  0.79568582  0.63994569    -0.89900
H1710       H  0.57193525  0.82161596  0.57167404     0.17800
H1711       H  0.46868091  0.70539396  0.59917456     0.17800
N1712       N  0.46448221  0.73216539  0.53018782    -0.88900
H1713       H  0.59101475  0.78216781  0.64087731     0.35200
H1714       H  0.56807403  0.79610317  0.66863511     0.40300
H1715       H  0.44325161  0.73584214  0.05298979     0.39900
H1716       H  0.46155323  0.70824417  0.52170585     0.34800
C1717       C  0.54455692  0.78194592  0.83606250    -0.26900
C1718       C  0.52686851  0.77174772  0.87313754    -0.15000
C1719       C  0.50728765  0.73561964  0.88209811     0.35600
C1720       C  0.50508348  0.71083909  0.85392260    -0.26400
C1721       C  0.52153361  0.72108391  0.81626890    -0.15600
C1722       C  0.54170230  0.75713735  0.80742452     0.36700
N1723       N  0.55964413  0.76852207  0.76947305    -0.89900
H1724       H  0.55980207  0.80940652  0.82879170     0.17800
H1725       H  0.48947157  0.68336573  0.86106214     0.17800
N1726       N  0.48968656  0.72382839  0.91998871    -0.88900
H1727       H  0.57475127  0.79568706  0.76844173     0.35200
H1728       H  0.54088826  0.76130013  0.74692233     0.40300
H1729       H  0.49916729  0.70947062  0.93442960     0.39900
H1730       H  0.46313259  0.70714093  0.91435696     0.34800
C1731       C  0.77445002  0.88720523  0.96652871    -0.26900
C1732       C  0.80701551  0.89210945  0.95426065    -0.15000
C1733       C  0.83740533  0.91640294  0.97516513     0.35600
C1734       C  0.83187864  0.92966905  0.51139431    -0.26400
C1735       C  0.79850621  0.92167330  0.52434699    -0.15600
C1736       C  0.76917485  0.89893106  0.50132656     0.36700
N1737       N  0.73491349  0.89149340  0.51289892    -0.89900
H1738       H  0.75097671  0.86928304  0.95035654     0.17800
H1739       H  0.85478605  0.94743541  0.52857522     0.17800
N1740       N  0.87172466  0.92405992  0.96409877    -0.88900
H1741       H  0.71839503  0.88127771  0.99303147     0.35200
H1742       H  0.73443583  0.91461704  0.51032422     0.40300
H1743       H  0.87640810  0.93233218  0.93411540     0.39900
H1744       H  0.87382833  0.90155568  0.46912432     0.34800
C1745       C  0.80260403  0.88090379  0.69267548    -0.26900
C1746       C  0.78785052  0.90103010  0.70455958    -0.15000
C1747       C  0.77705971  0.89891924  0.74498437     0.35600
C1748       C  0.78228313  0.87783272  0.77260560    -0.26400
C1749       C  0.79764441  0.85825935  0.76086238    -0.15600
C1750       C  0.80713490  0.85923659  0.72014062     0.36700
N1751       N  0.82301597  0.83972608  0.70721584    -0.89900
H1752       H  0.81098861  0.88237230  0.66173373     0.17800
H1753       H  0.77487591  0.87713352  0.80383771     0.17800
N1754       N  0.76211176  0.91919812  0.75829049    -0.88900
H1755       H  0.82989204  0.84444659  0.67678963     0.35200
H1756       H  0.80418622  0.81331496  0.70952077     0.40300
H1757       H  0.78135275  0.94546840  0.75576029     0.39900
H1758       H  0.75541390  0.91460720  0.78877442     0.34800
C1759       C  0.69658290  0.05911643  0.68043220    -0.26900
C1760       C  0.67008267  0.04328205  0.70923228    -0.15000
C1761       C  0.65811419  0.00816196  0.72005644     0.35600
C1762       C  0.67639747  0.99171622  0.70583134    -0.26400
C1763       C  0.70627438  0.01003944  0.68148798    -0.15600
C1764       C  0.71514397  0.04350461  0.66743281     0.36700
N1765       N  0.74423065  0.06272144  0.64094331    -0.89900
H1766       H  0.70541986  0.08556457  0.67075037     0.17800
H1767       H  0.66860865  0.96557972  0.71560148     0.17800
N1768       N  0.62818802  0.98962465  0.74580762    -0.88900
H1769       H  0.76201870  0.08599602  0.65513826     0.35200
H1770       H  0.73523957  0.06893676  0.61500066     0.40300
H1771       H  0.63387554  0.00201330  0.77370125     0.39900
H1772       H  0.62310538  0.96434766  0.75105301     0.34800
C1773       C  0.67376064  0.98837962  0.56579819    -0.26900
C1774       C  0.69988073  0.98587349  0.54465360    -0.15000
C1775       C  0.69141074  0.96801243  0.50764091     0.35600
C1776       C  0.65864854  0.95347315  0.99594778    -0.26400
C1777       C  0.62964673  0.94739004  0.51972214    -0.15600
C1778       C  0.63854783  0.96924681  0.55378469     0.36700
N1779       N  0.61278703  0.97102777  0.57813812    -0.89900
H1780       H  0.68006033  0.00224174  0.59414280     0.17800
H1781       H  0.65317469  0.94053893  0.96702350     0.17800
N1782       N  0.71992255  0.97328962  0.98314128    -0.88900
H1783       H  0.61288509  0.96091083  0.60650805     0.35200
H1784       H  0.58778267  0.95556273  0.56643288     0.40300
H1785       H  0.74468215  0.98867027  0.99559633     0.39900
H1786       H  0.71986886  0.98598281  0.95668998     0.34800
C1787       C  0.54654818  0.11844210  0.64257287    -0.26900
C1788       C  0.53060553  0.13775569  0.65254089    -0.15000
C1789       C  0.53510972  0.15181746  0.69148150     0.35600
C1790       C  0.55586389  0.14656852  0.71948246    -0.26400
C1791       C  0.57228047  0.12755920  0.70935579    -0.15600
C1792       C  0.56701237  0.11305318  0.67031022     0.36700
N1793       N  0.58332070  0.09411590  0.65716968    -0.89900
H1794       H  0.54350832  0.10785058  0.61249808     0.17800
H1795       H  0.55974984  0.15792776  0.74920657     0.17800
N1796       N  0.51973594  0.17237494  0.70195391    -0.88900
H1797       H  0.57413066  0.07174284  0.67485322     0.35200
H1798       H  0.61028449  0.10980085  0.66089032     0.40300
H1799       H  0.53127800  0.19467087  0.68383187     0.39900
H1800       H  0.52562626  0.18095191  0.73172015     0.34800
C1801       C  0.57243341  0.16349846  0.93248303    -0.26900
C1802       C  0.55381561  0.13391836  0.95684547    -0.15000
C1803       C  0.55326606  0.10280609  0.94681105     0.35600
C1804       C  0.57067235  0.10191650  0.91194027    -0.26400
C1805       C  0.58869675  0.13149768  0.88753638    -0.15600
C1806       C  0.58936941  0.16242421  0.89782394     0.36700
N1807       N  0.60610962  0.19249117  0.87225967    -0.89900
H1808       H  0.57261301  0.18737841  0.93914298     0.17800
H1809       H  0.57063544  0.07830961  0.90409438     0.17800
N1810       N  0.53498217  0.07232267  0.97170853    -0.88900
H1811       H  0.62503781  0.21326352  0.88916256     0.35200
H1812       H  0.58743784  0.19875546  0.86328940     0.40300
H1813       H  0.54754208  0.07812261  0.99959948     0.39900
H1814       H  0.53684897  0.05166570  0.95968115     0.34800
C1815       C  0.45189243  0.21101906  0.94044525    -0.26900
C1816       C  0.46983850  0.19368781  0.93010968    -0.15000
C1817       C  0.48190815  0.19629869  0.89026368     0.35600
C1818       C  0.47695876  0.21726380  0.86217116    -0.26400
C1819       C  0.45972299  0.23535090  0.87280331    -0.15600
C1820       C  0.44640309  0.23132481  0.91242129     0.36700
N1821       N  0.42857716  0.24873261  0.92572887    -0.89900
H1822       H  0.44238810  0.20912337  0.97095434     0.17800
H1823       H  0.48710762  0.21994002  0.83188826     0.17800
N1824       N  0.50017501  0.17872825  0.87882569    -0.88900
H1825       H  0.40590261  0.23982658  0.90869362     0.35200
H1826       H  0.44478929  0.27547497  0.92099773     0.40300
H1827       H  0.52337193  0.18971175  0.89529228     0.39900
H1828       H  0.50731172  0.18323144  0.84847058     0.34800
C1829       C  0.49891106  0.24651233  0.63812369    -0.26900
C1830       C  0.46792723  0.22061216  0.62063796    -0.15000
C1831       C  0.43560117  0.21389521  0.63654905     0.35600
C1832       C  0.43500075  0.23095389  0.67163947    -0.26400
C1833       C  0.46610749  0.25493699  0.69076224    -0.15600
C1834       C  0.49840095  0.26338817  0.67304786     0.36700
N1835       N  0.53095163  0.28806149  0.69115109    -0.89900
H1836       H  0.52400833  0.25245448  0.62611329     0.17800
H1837       H  0.41008938  0.22520861  0.68404865     0.17800
N1838       N  0.40335055  0.18934927  0.61785550    -0.88900
H1839       H  0.54528734  0.30780918  0.67021448     0.35200
H1840       H  0.54483470  0.27547186  0.69746270     0.40300
H1841       H  0.39004059  0.20228645  0.61035083     0.39900
H1842       H  0.38829799  0.17000472  0.63891241     0.34800
C1843       C  0.29653299  0.06965841  0.97078340    -0.26900
C1844       C  0.30159947  0.06917529  0.92873342    -0.15000
C1845       C  0.33576433  0.08555090  0.91360199     0.35600
C1846       C  0.36376100  0.09870993  0.94093306    -0.26400
C1847       C  0.35831382  0.09469604  0.98312095    -0.15600
C1848       C  0.32607688  0.07180406  0.49979092     0.36700
N1849       N  0.32122549  0.07004691  0.54267766    -0.89900
H1850       H  0.27018452  0.05778513  0.98254452     0.17800
H1851       H  0.39001541  0.10989362  0.92909591     0.17800
N1852       N  0.34190830  0.08660627  0.87099725    -0.88900
H1853       H  0.29466657  0.05650625  0.54988125     0.35200
H1854       H  0.33111608  0.09549590  0.55301393     0.40300
H1855       H  0.33212421  0.06102013  0.86121179     0.39900
H1856       H  0.36867046  0.09992865  0.86489652     0.34800
C1857       C  0.19384360  0.08790054  0.96983056    -0.26900
C1858       C  0.18577295  0.05440697  0.98261927    -0.15000
C1859       C  0.18324316  0.04758272  0.02441007     0.35600
C1860       C  0.17033800  0.06818828  0.54340437    -0.26400
C1861       C  0.19354547  0.10395269  0.53573779    -0.15600
C1862       C  0.21430238  0.11316969  0.50043869     0.36700
N1863       N  0.23887489  0.14906752  0.49157487    -0.89900
H1864       H  0.19622810  0.09367211  0.93790488     0.17800
H1865       H  0.15459232  0.06053412  0.57051471     0.17800
N1866       N  0.17558624  0.01401639  0.03875969    -0.88900
H1867       H  0.25035512  0.15146407  0.46337116     0.35200
H1868       H  0.25907424  0.15764281  0.51253377     0.40300
H1869       H  0.15052069  0.99572607  0.02897095     0.39900
H1870       H  0.17488220  0.01329586  0.07021895     0.34800
C1871       C  0.21538954  0.12725585  0.73945994    -0.26900
C1872       C  0.18555691  0.11333928  0.71526033    -0.15000
C1873       C  0.15468474  0.08342459  0.72797184     0.35600
C1874       C  0.15453180  0.06714464  0.76380851    -0.26400
C1875       C  0.18480120  0.07999257  0.78728502    -0.15600
C1876       C  0.21516051  0.11105174  0.77563783     0.36700
N1877       N  0.24573564  0.12620769  0.80031322    -0.89900
H1878       H  0.23881878  0.15102675  0.73053464     0.17800
H1879       H  0.13093162  0.04327733  0.77207553     0.17800
N1880       N  0.12374314  0.06873632  0.70386707    -0.88900
H1881       H  0.25178753  0.15142688  0.80789034     0.35200
H1882       H  0.26636581  0.12808388  0.78321145     0.40300
H1883       H  0.10372179  0.06791690  0.72123428     0.39900
H1884       H  0.11669080  0.04315510  0.69668904     0.34800
C1885       C  0.44670959  0.87635414  0.57568710    -0.26900
C1886       C  0.43669100  0.85806697  0.53913040    -0.15000
C1887       C  0.40050944  0.83781085  0.53018912     0.35600
C1888       C  0.37553475  0.83453358  0.55896275    -0.26400
C1889       C  0.38577599  0.85108794  0.59643201    -0.15600
C1890       C  0.42186751  0.87291652  0.60426744     0.36700
N1891       N  0.43409893  0.89212925  0.64105453    -0.89900
H1892       H  0.47413857  0.89259689  0.58280965     0.17800
H1893       H  0.34797119  0.81808391  0.55264301     0.17800
N1894       N  0.39085440  0.82801694  0.99141537    -0.88900
H1895       H  0.42635239  0.87468762  0.66514541     0.35200
H1896       H  0.42264065  0.90745667  0.64434056     0.40300
H1897       H  0.40081047  0.84832162  0.97042800     0.39900
H1898       H  0.36368227  0.81522671  0.98907567     0.34800
C1899       C  0.43529288  0.88658643  0.81083085    -0.26900
C1900       C  0.41605423  0.85497073  0.78998975    -0.15000
C1901       C  0.41724461  0.82559941  0.80293411     0.35600
C1902       C  0.43532098  0.82757660  0.83795178    -0.26400
C1903       C  0.45287556  0.85858711  0.86040479    -0.15600
C1904       C  0.45394196  0.88884568  0.84574896     0.36700
N1905       N  0.47349554  0.92158107  0.86630128    -0.89900
H1906       H  0.43477992  0.90943733  0.80078562     0.17800
H1907       H  0.43499422  0.80424283  0.84778571     0.17800
N1908       N  0.39980986  0.79353884  0.78098621    -0.88900
H1909       H  0.47042471  0.94081417  0.85218359     0.35200
H1910       H  0.49991066  0.92946557  0.86361465     0.40300
H1911       H  0.38182557  0.77413711  0.80026366     0.39900
H1912       H  0.41835701  0.78690113  0.77264384     0.34800
C1913       C  0.23495350  0.93416840  0.77228461    -0.26900
C1914       C  0.23711849  0.93281958  0.81472696    -0.15000
C1915       C  0.24864717  0.91149212  0.83130099     0.35600
C1916       C  0.26090812  0.89492591  0.80560966    -0.26400
C1917       C  0.26226658  0.89943683  0.76332072    -0.15600
C1918       C  0.24740164  0.91778562  0.74648449     0.36700
N1919       N  0.24730095  0.92192176  0.70360290    -0.89900
H1920       H  0.22476985  0.94939646  0.75900907     0.17800
H1921       H  0.27154686  0.88014585  0.81905921     0.17800
N1922       N  0.25000780  0.90823320  0.87403075    -0.88900
H1923       H  0.23671915  0.93744489  0.69618809     0.35200
H1924       H  0.23058711  0.89734473  0.69138653     0.40300
H1925       H  0.27586254  0.91692096  0.88201727     0.39900
H1926       H  0.23508111  0.88181514  0.88138596     0.34800
C1927       C  0.39770900  0.96016577  0.60802280    -0.26900
C1928       C  0.39815445  0.96424849  0.65032485    -0.15000
C1929       C  0.41781098  0.99775776  0.66647485     0.35600
C1930       C  0.43311961  0.02656250  0.64033985    -0.26400
C1931       C  0.42861768  0.02261822  0.59809779    -0.15600
C1932       C  0.41251201  0.98895799  0.58174783     0.36700
N1933       N  0.40874453  0.98399895  0.53892843    -0.89900
H1934       H  0.38371612  0.93423390  0.59525762     0.17800
H1935       H  0.44656798  0.05240473  0.65340239     0.17800
N1936       N  0.42025003  0.00290003  0.70913805    -0.88900
H1937       H  0.39479059  0.95746160  0.53196477     0.35200
H1938       H  0.43369583  0.99379458  0.52679446     0.40300
H1939       H  0.40994955  0.01871500  0.71637273     0.39900
H1940       H  0.44666659  0.01632097  0.71684737     0.34800
C1941       C  0.93289693  0.81578542  0.74651938    -0.26900
C1942       C  0.91657563  0.79013716  0.71656093    -0.15000
C1943       C  0.88142020  0.76360975  0.72183526     0.35600
C1944       C  0.86333351  0.76411055  0.75620589    -0.26400
C1945       C  0.87922245  0.79108019  0.78453136    -0.15600
C1946       C  0.91457973  0.81664342  0.78025163     0.36700
N1947       N  0.93156348  0.84370441  0.80980746    -0.89900
H1948       H  0.96007388  0.83580499  0.74343669     0.17800
H1949       H  0.83597572  0.74461676  0.75947731     0.17800
N1950       N  0.86374085  0.73709095  0.69187471    -0.88900
H1951       H  0.95758034  0.86075250  0.80188636     0.35200
H1952       H  0.93189222  0.83189500  0.83687674     0.40300
H1953       H  0.86117829  0.74916744  0.66618527     0.39900
H1954       H  0.83840025  0.71903739  0.70123842     0.34800
C1955       C  0.87867436  0.78317504  0.96835246    -0.26900
C1956       C  0.86235479  0.80203383  0.97923440    -0.15000
C1957       C  0.86832375  0.81642981  0.51883677     0.35600
C1958       C  0.88886534  0.81076629  0.54663699    -0.26400
C1959       C  0.90749375  0.79420000  0.53536732    -0.15600
C1960       C  0.89948714  0.77732125  0.99579408     0.36700
N1961       N  0.91580708  0.75811175  0.98328913    -0.89900
H1962       H  0.87524805  0.77302856  0.93802189     0.17800
H1963       H  0.89059508  0.81984504  0.57726379     0.17800
N1964       N  0.85052964  0.83407863  0.53128252    -0.88900
H1965       H  0.91053962  0.75112486  0.95297291     0.35200
H1966       H  0.91161398  0.74129922  0.49647735     0.40300
H1967       H  0.86904458  0.85847675  0.54251822     0.39900
H1968       H  0.83358815  0.81981761  0.55478534     0.34800
C1969       C  0.09166896  0.86816002  0.50920660    -0.26900
C1970       C  0.06680063  0.87459176  0.52654505    -0.15000
C1971       C  0.05325006  0.88162896  0.99468803     0.35600
C1972       C  0.07293183  0.90001571  0.96130567    -0.26400
C1973       C  0.10641555  0.90545101  0.95518406    -0.15600
C1974       C  0.10865853  0.88462834  0.47351234     0.36700
N1975       N  0.13437495  0.87769709  0.45725961    -0.89900
H1976       H  0.09800605  0.85014321  0.52330693     0.17800
H1977       H  0.06239563  0.91129686  0.94084057     0.17800
N1978       N  0.01927923  0.87726610  0.99997554    -0.88900
H1979       H  0.12245740  0.85097262  0.45179586     0.35200
H1980       H  0.15372740  0.88430192  0.47896398     0.40300
H1981       H  0.01315417  0.89792412  0.50234137     0.39900
H1982       H  0.02191144  0.90192380  0.00111970     0.34800
C1983       C  0.11404053  0.94669683  0.73135668    -0.26900
C1984       C  0.13024014  0.93810369  0.76155582    -0.15000
C1985       C  0.12418142  0.90361688  0.76301952     0.35600
C1986       C  0.10128276  0.87859480  0.73511504    -0.26400
C1987       C  0.08384114  0.88674769  0.70564925    -0.15600
C1988       C  0.09116338  0.92168593  0.70357835     0.36700
N1989       N  0.07534527  0.93215988  0.67345000    -0.89900
H1990       H  0.11822045  0.97284886  0.73011691     0.17800
H1991       H  0.09658480  0.85230462  0.73717235     0.17800
N1992       N  0.14018642  0.89278199  0.79277179    -0.88900
H1993       H  0.09520477  0.95232433  0.65660668     0.35200
H1994       H  0.06127047  0.94196764  0.68795695     0.40300
H1995       H  0.15683329  0.91329793  0.81153017     0.39900
H1996       H  0.15583073  0.88519920  0.77754601     0.34800
C1997       C  0.01578578  0.66432489  0.01721181    -0.26900
C1998       C  0.04743990  0.67244449  0.53600011    -0.15000
C1999       C  0.06155109  0.69650809  0.56791988     0.35600
C2000       C  0.04617140  0.71606648  0.57868154    -0.26400
C2001       C  0.01651556  0.71208699  0.55884461    -0.15600
C2002       C  0.00001661  0.68548981  0.52990522     0.36700
N2003       N  0.96943997  0.67899712  0.00724507    -0.89900
H2004       H  0.00638660  0.64752426  0.99111633     0.17800
H2005       H  0.05824244  0.73557868  0.60202534     0.17800
N2006       N  0.09314088  0.70282074  0.58726348    -0.88900
H2007       H  0.96174563  0.65958564  0.98541141     0.35200
H2008       H  0.97660200  0.70216663  0.99190915     0.40300
H2009       H  0.08773498  0.67985960  0.60193464     0.39900
H2010       H  0.10076621  0.72194653  0.60944318     0.34800
C2011       C  0.24949152  0.74495475  0.60221629    -0.26900
C2012       C  0.24014808  0.76663240  0.62249921    -0.15000
C2013       C  0.21202358  0.76984739  0.60805002     0.35600
C2014       C  0.19532510  0.75281498  0.57232893    -0.26400
C2015       C  0.20598074  0.73253059  0.55136108    -0.15600
C2016       C  0.23325319  0.72843634  0.56651761     0.36700
N2017       N  0.24516308  0.70840454  0.54493817    -0.89900
H2018       H  0.27101331  0.74231059  0.61289431     0.17800
H2019       H  0.17368869  0.75502384  0.56106139     0.17800
N2020       N  0.20080084  0.79057670  0.62921867    -0.88900
H2021       H  0.26523173  0.70775329  0.56047061     0.35200
H2022       H  0.25583424  0.72116325  0.51766568     0.40300
H2023       H  0.19102153  0.77872785  0.65713909     0.39900
H2024       H  0.18015414  0.79048011  0.61413732     0.34800
C2025       C  0.25103095  0.77218383  0.88639155    -0.26900
C2026       C  0.21659080  0.74884053  0.87393174    -0.15000
C2027       C  0.20807486  0.74795810  0.83299229     0.35600
C2028       C  0.23431757  0.76933532  0.80526241    -0.26400
C2029       C  0.26903337  0.79210915  0.81738570    -0.15600
C2030       C  0.27716209  0.79432984  0.85873361     0.36700
N2031       N  0.31206873  0.81779535  0.87233544    -0.89900
H2032       H  0.25758775  0.77299139  0.91792251     0.17800
H2033       H  0.22770508  0.76776844  0.77365620     0.17800
N2034       N  0.17313545  0.72444030  0.81944475    -0.88900
H2035       H  0.31404728  0.81493465  0.90328947     0.35200
H2036       H  0.31695122  0.84312243  0.86814031     0.40300
H2037       H  0.16797900  0.69906398  0.82415628     0.39900
H2038       H  0.17109818  0.72709750  0.78846165     0.34800
C2039       C  0.95688577  0.66579127  0.66175174    -0.26900
C2040       C  0.98334019  0.69409542  0.68315909    -0.15000
C2041       C  0.99722281  0.68761016  0.71787854     0.35600
C2042       C  0.98140140  0.65315346  0.73294936    -0.26400
C2043       C  0.95214662  0.62556296  0.71378464    -0.15600
C2044       C  0.94105944  0.63190415  0.67682093     0.36700
N2045       N  0.91227990  0.60465508  0.65526901    -0.89900
H2046       H  0.94663909  0.67039571  0.63435740     0.17800
H2047       H  0.98992274  0.64832178  0.76147649     0.17800
N2048       N  0.02517724  0.71605419  0.73923950    -0.88900
H2049       H  0.88999983  0.59428764  0.67343166     0.35200
H2050       H  0.91795951  0.58502213  0.64944921     0.40300
H2051       H  0.04704432  0.72701895  0.72037955     0.39900
H2052       H  0.03185756  0.70687907  0.76465777     0.34800
C2053       C  0.76349361  0.55370857  0.65266202    -0.26900
C2054       C  0.75121465  0.52549255  0.62599273    -0.15000
C2055       C  0.76120323  0.50041691  0.63162060     0.35600
C2056       C  0.78181032  0.50328664  0.66458482    -0.26400
C2057       C  0.79211035  0.53019117  0.69300712    -0.15600
C2058       C  0.78347868  0.55625513  0.68611324     0.36700
N2059       N  0.79312652  0.58476913  0.71309044    -0.89900
H2060       H  0.75596003  0.57314220  0.64875110     0.17800
H2061       H  0.78896695  0.48357822  0.66848908     0.17800
N2062       N  0.75107295  0.47192406  0.60445592    -0.88900
H2063       H  0.82032350  0.59989448  0.71428333     0.35200
H2064       H  0.78310858  0.57496760  0.74168194     0.40300
H2065       H  0.75839454  0.48184995  0.57528237     0.39900
H2066       H  0.72403479  0.45559247  0.60564925     0.34800
C2067       C  0.70924817  0.49968334  0.89226347    -0.26900
C2068       C  0.71941382  0.51547034  0.93012951    -0.15000
C2069       C  0.75533375  0.53650982  0.93854456     0.35600
C2070       C  0.78037908  0.54042891  0.90982643    -0.26400
C2071       C  0.77043286  0.52302455  0.87271597    -0.15600
C2072       C  0.73416787  0.50285153  0.86377882     0.36700
N2073       N  0.72172244  0.48557774  0.82592641    -0.89900
H2074       H  0.68174657  0.48357963  0.88536962     0.17800
H2075       H  0.80779566  0.55632353  0.91720362     0.17800
N2076       N  0.76647712  0.55406628  0.97643401    -0.88900
H2077       H  0.72841093  0.46636144  0.82310648     0.35200
H2078       H  0.73363398  0.50384814  0.80282752     0.40300
H2079       H  0.78591568  0.57162716  0.47954002     0.39900
H2080       H  0.78217513  0.54598317  0.99049893     0.34800
C2081       C  0.01557454  0.65889987  0.87828468    -0.26900
C2082       C  0.02541357  0.63978315  0.90285461    -0.15000
C2083       C  0.99943141  0.60688434  0.91759062     0.35600
C2084       C  0.96517512  0.59213704  0.90420423    -0.26400
C2085       C  0.95624729  0.60903599  0.87543397    -0.15600
C2086       C  0.98095443  0.64355091  0.86406906     0.36700
N2087       N  0.97160638  0.66145255  0.83529389    -0.89900
H2088       H  0.03525377  0.68447800  0.86779323     0.17800
H2089       H  0.94629474  0.56567259  0.91306186     0.17800
N2090       N  0.00802184  0.58748695  0.94490151    -0.88900
H2091       H  0.99291754  0.68618294  0.82925466     0.35200
H2092       H  0.95249384  0.66526783  0.84855847     0.40300
H2093       H  0.00136690  0.56372225  0.93142337     0.39900
H2094       H  0.99274524  0.58226852  0.97079763     0.34800
C2095       C  0.76320076  0.20806991  0.90476461    -0.26900
C2096       C  0.75523930  0.21863681  0.86849937    -0.15000
C2097       C  0.77195111  0.25474435  0.85976378     0.35600
C2098       C  0.79389523  0.27926576  0.88872708    -0.26400
C2099       C  0.79979691  0.26853773  0.92606008    -0.15600
C2100       C  0.78519865  0.23240313  0.93351063     0.36700
N2101       N  0.79224900  0.21937266  0.96973202    -0.89900
H2102       H  0.75140251  0.18056916  0.91146553     0.17800
H2103       H  0.80531567  0.30684787  0.88278947     0.17800
N2104       N  0.76641750  0.26641356  0.82163370    -0.88900
H2105       H  0.76915618  0.20668805  0.98647794     0.35200
H2106       H  0.82099030  0.23518027  0.47040014     0.40300
H2107       H  0.77663190  0.25757594  0.79930342     0.39900
H2108       H  0.78042386  0.29360027  0.82002057     0.34800
C2109       C  0.73895196  0.24340893  0.63563186    -0.26900
C2110       C  0.76290694  0.23616724  0.61718070    -0.15000
C2111       C  0.76729395  0.20903807  0.63253538     0.35600
C2112       C  0.75054353  0.19256556  0.66850308    -0.26400
C2113       C  0.72912860  0.20217726  0.68891638    -0.15600
C2114       C  0.72242468  0.22721703  0.67161159     0.36700
N2115       N  0.70016582  0.23738356  0.69136313    -0.89900
H2116       H  0.73498501  0.26374764  0.62368654     0.17800
H2117       H  0.75442564  0.17226550  0.68078180     0.17800
N2118       N  0.78939537  0.19895256  0.61231962    -0.88900
H2119       H  0.69738202  0.25538131  0.67397895     0.35200
H2120       H  0.71254438  0.25018371  0.71795937     0.40300
H2121       H  0.77815371  0.18871810  0.58433685     0.39900
H2122       H  0.79007224  0.17895797  0.62798329     0.34800
C2123       C  0.87772762  0.39928231  0.66993333    -0.26900
C2124       C  0.84595271  0.38186719  0.64897670    -0.15000
C2125       C  0.82093206  0.39167435  0.65633762     0.35600
C2126       C  0.82806850  0.41855949  0.68357803    -0.26400
C2127       C  0.86001721  0.43664327  0.70422220    -0.15600
C2128       C  0.88509516  0.42623469  0.69765948     0.36700
N2129       N  0.91781443  0.44152542  0.71869776    -0.89900
H2130       H  0.89732364  0.39229518  0.66427526     0.17800
H2131       H  0.80827236  0.42551641  0.68841475     0.17800
N2132       N  0.78787111  0.37409414  0.63636947    -0.88900
H2133       H  0.91852554  0.42159969  0.73447942     0.35200
H2134       H  0.91980432  0.45921109  0.74046339     0.40300
H2135       H  0.78492440  0.39259743  0.62028583     0.39900
H2136       H  0.76831688  0.36331992  0.65833127     0.34800
C2137       C  0.89210519  0.43207273  0.93218728    -0.26900
C2138       C  0.86157674  0.41523873  0.95552509    -0.15000
C2139       C  0.83338623  0.42008310  0.94593144     0.35600
C2140       C  0.83559668  0.43955749  0.91213270    -0.26400
C2141       C  0.86502107  0.45406536  0.88668434    -0.15600
C2142       C  0.89413434  0.45109342  0.89792817     0.36700
N2143       N  0.92577672  0.46603078  0.87496724    -0.89900
H2144       H  0.91409025  0.42886562  0.93918587     0.17800
H2145       H  0.81339605  0.44243706  0.90528991     0.17800
N2146       N  0.80210927  0.40563031  0.96960604    -0.88900
H2147       H  0.93665495  0.49301402  0.87379117     0.35200
H2148       H  0.92017571  0.45560740  0.84592525     0.40300
H2149       H  0.80316356  0.41187079  0.49752156     0.39900
H2150       H  0.78841252  0.37855937  0.96686360     0.34800
C2151       C  0.93078079  0.22636809  0.97693681    -0.26900
C2152       C  0.92622624  0.22605501  0.93471673    -0.15000
C2153       C  0.90272253  0.23573095  0.91975042     0.35600
C2154       C  0.88822419  0.24954204  0.94625754    -0.26400
C2155       C  0.89650173  0.25395069  0.98770083    -0.15600
C2156       C  0.91640118  0.24028481  0.00334647     0.36700
N2157       N  0.91112023  0.23407725  0.54055196    -0.89900
H2158       H  0.94751119  0.21762999  0.98946378     0.17800
H2159       H  0.87216711  0.25915732  0.93387696     0.17800
N2160       N  0.89473468  0.23389387  0.87778784    -0.88900
H2161       H  0.88680651  0.22396321  0.55449336     0.35200
H2162       H  0.92782056  0.25908451  0.55175138     0.40300
H2163       H  0.88371162  0.20800772  0.86854896     0.39900
H2164       H  0.91790931  0.24911760  0.86183533     0.34800
C2165       C  0.03897633  0.16448242  0.72451201    -0.26900
C2166       C  0.04932020  0.18277490  0.76092459    -0.15000
C2167       C  0.08527615  0.20580357  0.76783925     0.35600
C2168       C  0.11015161  0.20905563  0.73901352    -0.26400
C2169       C  0.10008286  0.18934957  0.70338082    -0.15600
C2170       C  0.06386339  0.16738147  0.69592973     0.36700
N2171       N  0.05206226  0.14774058  0.65941336    -0.89900
H2172       H  0.01150817  0.14668462  0.71892561     0.17800
H2173       H  0.13763033  0.22626193  0.74509535     0.17800
N2174       N  0.09641420  0.22531954  0.80469004    -0.88900
H2175       H  0.03588288  0.15480442  0.64455404     0.35200
H2176       H  0.03710578  0.12136946  0.66698677     0.40300
H2177       H  0.08673936  0.24233720  0.80486355     0.39900
H2178       H  0.12359114  0.24080327  0.80553297     0.34800
C2179       C  0.07024412  0.15433227  0.97954953    -0.26900
C2180       C  0.08127323  0.18516090  0.95761596    -0.15000
C2181       C  0.09916217  0.22608857  0.48399722     0.35600
C2182       C  0.11714565  0.22374183  0.51725365    -0.26400
C2183       C  0.12106917  0.19467330  0.52267421    -0.15600
C2184       C  0.08629399  0.15440227  0.01547264     0.36700
N2185       N  0.07273770  0.12277786  0.03818760    -0.89900
H2186       H  0.04771247  0.13007662  0.97008340     0.17800
H2187       H  0.12696271  0.24413229  0.53972041     0.17800
N2188       N  0.09339455  0.25492328  0.48039991    -0.88900
H2189       H  0.07372898  0.10415004  0.02003564     0.35200
H2190       H  0.09011038  0.11698870  0.49477378     0.40300
H2191       H  0.10715318  0.26927182  0.45505976     0.39900
H2192       H  0.10400103  0.27171367  0.50498046     0.34800
C2193       C  0.90242909  0.11110149  0.97524648    -0.26900
C2194       C  0.93797872  0.12706359  0.98514007    -0.15000
C2195       C  0.94538996  0.11786929  0.52415797     0.35600
C2196       C  0.91878509  0.09552122  0.55117174    -0.26400
C2197       C  0.88342151  0.08498854  0.54454654    -0.15600
C2198       C  0.87620568  0.09146524  0.00350745     0.36700
N2199       N  0.84061310  0.07548946  0.99080888    -0.89900
H2200       H  0.89494206  0.11353245  0.94492254     0.17800
H2201       H  0.92573818  0.08574133  0.57723092     0.17800
N2202       N  0.98101536  0.12736203  0.53108008    -0.88900
H2203       H  0.82793829  0.08501854  0.00861178     0.35200
H2204       H  0.82865042  0.04857712  0.99500982     0.40300
H2205       H  0.98846700  0.11657987  0.50794507     0.39900
H2206       H  0.98316888  0.11637476  0.55793533     0.34800
C2207       C  0.91099464  0.07121354  0.77389766    -0.26900
C2208       C  0.90436152  0.09548552  0.79256339    -0.15000
C2209       C  0.87775077  0.10071218  0.77735092     0.35600
C2210       C  0.85976883  0.08308163  0.74269020    -0.26400
C2211       C  0.86791459  0.06042542  0.72279827    -0.15600
C2212       C  0.89360537  0.05410195  0.73880005     0.36700
N2213       N  0.90302536  0.03147937  0.71861739    -0.89900
H2214       H  0.93134219  0.06698528  0.78529126     0.17800
H2215       H  0.83954086  0.08743473  0.73110545     0.17800
N2216       N  0.86941190  0.12447738  0.79620709    -0.88900
H2217       H  0.92195179  0.02931570  0.73484037     0.35200
H2218       H  0.91450744  0.04312089  0.69112368     0.40300
H2219       H  0.84302219  0.11072854  0.80420465     0.39900
H2220       H  0.87305851  0.14343393  0.77507751     0.34800
C2221       C  0.96116755  0.38833496  0.64271948    -0.26900
C2222       C  0.96534120  0.39332369  0.60043276    -0.15000
C2223       C  0.99892740  0.41682179  0.58543842     0.35600
C2224       C  0.02735813  0.43174158  0.61203630    -0.26400
C2225       C  0.02343057  0.42380533  0.65368028    -0.15600
C2226       C  0.98968915  0.40328624  0.66935930     0.36700
N2227       N  0.98468161  0.39531229  0.71161228    -0.89900
H2228       H  0.93554987  0.37092506  0.65511380     0.17800
H2229       H  0.05325841  0.44785255  0.59951418     0.17800
N2230       N  0.00545197  0.42431210  0.54336257    -0.88900
H2231       H  0.95825288  0.37867362  0.71808405     0.35200
H2232       H  0.99216815  0.41854571  0.72690275     0.40300
H2233       H  0.99071383  0.43511646  0.53344749     0.39900
H2234       H  0.99738191  0.40100578  0.52798037     0.34800
C2235       C  0.07097404  0.32143544  0.74588366    -0.26900
C2236       C  0.09069793  0.35420772  0.76335363    -0.15000
C2237       C  0.09811518  0.35653165  0.80525037     0.35600
C2238       C  0.08185080  0.32644898  0.82950056    -0.26400
C2239       C  0.05882297  0.29408448  0.81261054    -0.15600
C2240       C  0.05524254  0.29140462  0.76998949     0.36700
N2241       N  0.03478324  0.25817286  0.75102420    -0.93500
H2242       H  0.06581071  0.31919801  0.71383145     0.17800
H2243       H  0.08568853  0.32860975  0.86179395     0.17800
N2244       N  0.12133126  0.38975670  0.82317277    -0.88900
H2245       H  0.05079850  0.25472896  0.73077991     0.35200
H2246       H  0.01491969  0.25849350  0.73463021     0.40300
H2247       H  0.14600020  0.39862727  0.81067939     0.39900
H2248       H  0.12371484  0.38716713  0.85410556     0.34800
C2249       C  0.22121370  0.45700017  0.80235371    -0.26900
C2250       C  0.19981041  0.46998911  0.81545118    -0.15000
C2251       C  0.19936853  0.47669145  0.85680721     0.35600
C2252       C  0.22173842  0.47254342  0.88351342    -0.26400
C2253       C  0.24382592  0.46042163  0.87013011    -0.15600
C2254       C  0.24254345  0.45147870  0.82917637     0.36700
N2255       N  0.26405671  0.43834896  0.81448526    -0.89900
H2256       H  0.22132652  0.45110905  0.77073237     0.17800
H2257       H  0.22199717  0.47906651  0.91497627     0.17800
N2258       N  0.17722212  0.48883306  0.87165282    -0.88900
H2259       H  0.26148296  0.43485158  0.78330069     0.35200
H2260       H  0.25455034  0.41360106  0.82692370     0.40300
H2261       H  0.19289801  0.51288628  0.88557477     0.39900
H2262       H  0.16081374  0.47126597  0.89356409     0.34800
C2263       C  0.20379722  0.43304918  0.59635681    -0.26900
C2264       C  0.22037902  0.46015329  0.62435244    -0.15000
C2265       C  0.25614070  0.48465908  0.61987976     0.35600
C2266       C  0.27373711  0.48320770  0.58591137    -0.26400
C2267       C  0.25637712  0.45802128  0.55571261    -0.15600
C2268       C  0.22118195  0.43168366  0.56216362     0.36700
N2269       N  0.21150143  0.39999611  0.04189263    -0.89900
H2270       H  0.17636529  0.41376840  0.59974392     0.17800
H2271       H  0.30111280  0.50267919  0.58277287     0.17800
N2272       N  0.27534253  0.51101746  0.64933610    -0.88900
H2273       H  0.22933608  0.39143545  0.03922120     0.35200
H2274       H  0.20445170  0.40423355  0.01336599     0.40300
H2275       H  0.27179391  0.49900394  0.67739003     0.39900
H2276       H  0.26581342  0.52809157  0.65057445     0.34800
C2277       C  0.16068401  0.56688967  0.53829425    -0.26900
C2278       C  0.13031226  0.56949727  0.53933429    -0.15000
C2279       C  0.10408461  0.54885802  0.56794556     0.35600
C2280       C  0.10932955  0.52727141  0.59482958    -0.26400
C2281       C  0.14004881  0.52566212  0.59401270    -0.15600
C2282       C  0.16580084  0.54562674  0.56522422     0.36700
N2283       N  0.19784725  0.54540473  0.56333511    -0.89900
H2284       H  0.18122537  0.58204312  0.51677685     0.17800
H2285       H  0.08981965  0.51249694  0.61756000     0.17800
N2286       N  0.07250149  0.55011971  0.57027786    -0.88900
H2287       H  0.19190023  0.51977792  0.55863604     0.35200
H2288       H  0.21044344  0.55371859  0.59108137     0.40300
H2289       H  0.07912049  0.57476964  0.58096037     0.39900
H2290       H  0.05541916  0.53223290  0.59151446     0.34800
C2291       C  0.10484145  0.54577598  0.80609662    -0.26900
C2292       C  0.13722011  0.55525824  0.78831095    -0.15000
C2293       C  0.16767740  0.58413018  0.80355460     0.35600
C2294       C  0.16563592  0.60084027  0.83805026    -0.26400
C2295       C  0.13363784  0.58964909  0.85774724    -0.15600
C2296       C  0.10266527  0.56279591  0.84048937     0.36700
N2297       N  0.06923045  0.55265325  0.85794328    -0.89900
H2298       H  0.08112085  0.52407884  0.79413474     0.17800
H2299       H  0.18963042  0.62220035  0.85000007     0.17800
N2300       N  0.20091975  0.59617036  0.78483227    -0.88900
H2301       H  0.04921736  0.53199025  0.84195940     0.35200
H2302       H  0.06518290  0.57367486  0.85482775     0.40300
H2303       H  0.21758557  0.59496126  0.80606836     0.39900
H2304       H  0.21117573  0.62224887  0.77672747     0.34800
loop_ 
_geom_bond_atom_site_label_1 
_geom_bond_atom_site_label_2 
_geom_bond_distance 
_geom_bond_site_symmetry_2 
_ccdc_geom_bond_type 
Fe1          O17   2.052       .  S
Fe1           O7   2.070       .  S
Fe1          O14   2.066       .  S
Fe1           O6   2.050       .  S
Fe1          O12   1.945       .  S
Fe2           O5   2.012       .  S
Fe2           O9   2.139       .  S
Fe2          O13   2.036       .  S
Fe2          O18   2.114       .  S
Fe2          O12   1.930       .  S
Fe3          O21   2.123       .  S
Fe3           O8   2.009       .  S
Fe3          O15   2.036       .  S
Fe3           O4   2.154       .  S
Fe3          O12   1.919       .  S
O4           C11   1.296       .  A
O5           C19   1.260       .  A
O6           C11   1.280       .  A
O7           C10   1.260       .  A
O8           C20   1.257       .  A
O9           C22   1.290       .  A
C10          O15   1.252       .  A
C10        C1140   1.480       .  S
C11        C1098   1.497       .  S
O13          C16   1.256       .  A
O14          C16   1.261       .  A
C16        C1112   1.475       .  S
O17          C22   1.278       .  A
O18          C20   1.278       .  A
C19          O21   1.282       .  A
C19        C1073   1.485       .  S
C20        C1084   1.468       .  S
C22        C1129   1.485       .  S
Fe23         O39   2.047       .  S
Fe23         O29   2.063       .  S
Fe23         O36   2.051   1_655  S
Fe23         O28   2.045   1_655  S
Fe23         O34   1.939       .  S
Fe24         O27   2.008   1_455  S
Fe24         O31   2.153   1_455  S
Fe24         O35   2.034       .  S
Fe24         O40   2.121       .  S
Fe24         O34   1.914   1_455  S
Fe25         O43   2.118       .  S
Fe25         O30   2.010   1_655  S
Fe25         O37   2.031       .  S
Fe25         O26   2.167       .  S
Fe25         O34   1.907       .  S
O26          C33   1.300   1_655  A
O27          C41   1.259       .  A
O28          C33   1.280       .  A
O29          C32   1.258       .  A
O30          C42   1.260       .  A
O31          C44   1.297       .  A
C32          O37   1.248       .  A
C32        C1056   1.469       .  S
C33        C1014   1.494       .  S
O35          C38   1.252       .  A
O36          C38   1.259       .  A
C38        C1028   1.463       .  S
O39          C44   1.280       .  A
O40          C42   1.281       .  A
C41          O43   1.280       .  A
C41        C1000   1.481       .  S
C42        C1087   1.485       .  S
C44        C1042   1.485       .  S
Fe45         O61   2.043       .  S
Fe45         O58   2.054       .  S
Fe45       O1203   2.054   1_554  S
Fe45       O1202   2.044   1_554  S
Fe45         O56   1.942       .  S
Fe46         O49   2.012       .  S
Fe46         O53   2.161       .  S
Fe46         O57   2.029       .  S
Fe46         O62   2.116       .  S
Fe46         O56   1.916       .  S
Fe47         O52   2.024       .  S
Fe47         O59   2.040       .  S
Fe47         O48   2.158       .  S
Fe47       O1217   2.129       .  S
Fe47       O1208   1.919       .  S
O48          C55   1.297       .  A
O49          C63   1.260       .  A
O50       Fe1197   2.044       .  S
O50          C55   1.278       .  A
O51       Fe1197   2.062       .  S
O51          C54   1.258       .  A
O52        C1216   1.262       .  A
O53          C66   1.299       .  A
C54          O59   1.254       .  A
C54         C986   1.475       .  S
C55         C947   1.490       .  S
O56       Fe1199   1.916   1_554  S
O57          C60   1.248       .  A
O58          C60   1.257       .  A
C60         C958   1.464       .  S
O61          C66   1.281       .  A
O62          C64   1.280       .  A
C63          O65   1.282       .  A
C63        C1070   1.495       .  S
C64        O1204   1.262   1_554  A
C64        C2155   1.486   1_554  S
O65       Fe1199   2.121   1_554  S
C66         C972   1.499       .  S
Fe67         O83   2.038       .  S
Fe67         O73   2.066       .  S
Fe67         O80   2.073       .  S
Fe67         O72   2.039       .  S
Fe67         O78   1.965       .  S
Fe68         O71   2.049       .  S
Fe68         O75   2.080       .  S
Fe68         O79   2.086       .  S
Fe68         O84   2.075       .  S
Fe68         O78   1.967       .  S
Fe69         O87   2.083       .  S
Fe69         O74   2.039       .  S
Fe69         O81   2.088       .  S
Fe69         O70   2.079       .  S
Fe69         O78   1.968       .  S
O70          C77   1.277       .  A
O71          C85   1.269       .  A
O72          C77   1.273       .  A
O73          C76   1.264       .  A
O74          C86   1.266       .  A
O75          C88   1.277       .  A
C76          O81   1.267       .  A
C76         C975   1.500       .  S
C77         C989   1.483       .  S
O79          C82   1.267       .  A
O80          C82   1.263       .  A
C82         C919   1.497       .  S
O83          C88   1.272       .  A
O84          C86   1.270       .  A
C85          O87   1.273       .  A
C85         C891   1.469       .  S
C86         C933   1.465       .  S
C88         C905   1.476       .  S
Fe89        O102   2.087       .  S
Fe89         O94   2.016       .  S
Fe89       O1257   2.008       .  S
Fe89       O1247   2.087       .  S
Fe89        O100   1.922       .  S
Fe90         O97   2.097       .  S
Fe90        O101   2.077       .  S
Fe90        O106   2.115       .  S
Fe90       O1245   2.026       .  S
Fe90        O100   1.938       .  S
Fe91         O96   2.029       .  S
Fe91         O92   2.111       .  S
Fe91       O1261   2.141       .  S
Fe91       O1255   2.089       .  S
Fe91        O100   1.925       .  S
O92          C99   1.283       .  A
O93       Fe1242   2.035   1_554  S
O93         C107   1.267       .  A
O94          C99   1.266       .  A
O95       Fe1241   2.095       .  S
O95          C98   1.273   1_556  A
O96         C108   1.260       .  A
O97        C1262   1.279       .  A
C98         O103   1.273       .  A
C98        C1126   1.502       .  S
C99        C1143   1.482       .  S
O101        C104   1.273       .  A
O102        C104   1.271       .  A
O103      Fe1243   2.078   1_554  S
C104        C874   1.489       .  S
O105      Fe1241   2.006   1_554  S
O105        C110   1.265       .  A
O106        C108   1.275       .  A
C107        O109   1.282   1_554  A
C107        C846   1.486       .  S
C108        C930   1.477       .  S
O109      Fe1243   2.134       .  S
C110       O1249   1.278   1_554  A
C110        C863   1.456       .  S
Fe111       O127   2.013   1_655  S
Fe111       O117   2.099       .  S
Fe111       O124   2.095   1_655  S
Fe111       O116   2.014       .  S
Fe111       O122   1.932       .  S
Fe112       O115   2.044       .  S
Fe112       O119   2.089       .  S
Fe112       O123   2.089       .  S
Fe112       O128   2.112       .  S
Fe112       O122   1.939   1_455  S
Fe113       O131   2.125       .  S
Fe113       O118   2.036       .  S
Fe113       O125   2.093       .  S
Fe113       O114   2.102       .  S
Fe113       O122   1.935       .  S
O114        C121   1.280       .  A
O115        C129   1.267       .  A
O116        C121   1.267       .  A
O117        C120   1.273       .  A
O118        C130   1.266       .  A
O119        C132   1.279       .  A
C120        O125   1.275       .  A
C120        C807   1.508       .  S
C121        C790   1.479       .  S
O123        C126   1.275       .  A
O124        C126   1.272       .  A
C126        C835   1.507       .  S
O127        C132   1.265       .  A
O128        C130   1.277   1_455  A
C129        O131   1.279   1_455  A
C129        C849   1.488       .  S
C130        C888   1.478       .  S
C132        C818   1.473       .  S
Fe133       O149   2.038       .  S
Fe133       O139   2.062       .  S
Fe133       O146   2.053       .  S
Fe133       O138   2.037       .  S
Fe133       O144   1.941       .  S
Fe134       O137   2.016       .  S
Fe134       O141   2.162       .  S
Fe134       O145   2.029       .  S
Fe134       O150   2.119       .  S
Fe134       O144   1.911       .  S
Fe135       O153   2.117       .  S
Fe135       O140   2.013       .  S
Fe135       O147   2.029       .  S
Fe135       O136   2.149       .  S
Fe135       O144   1.911       .  S
O136        C143   1.296       .  A
O137        C151   1.260       .  A
O138        C143   1.278       .  A
O139        C142   1.259       .  A
O140        C152   1.260       .  A
O141        C154   1.299       .  A
C142        O147   1.251       .  A
C142        C748   1.460       .  S
C143        C877   1.486       .  S
O145        C148   1.248       .  A
O146        C148   1.258       .  A
C148        C860   1.468       .  S
O149        C154   1.279       .  A
O150        C152   1.281       .  A
C151        O153   1.280       .  A
C151        C776   1.487       .  S
C152        C765   1.487       .  S
C154        C737   1.493       .  S
Fe155       O171   2.050       .  S
Fe155       O161   2.074       .  S
Fe155       O168   2.063   1_565  S
Fe155       O160   2.045   1_565  S
Fe155       O166   1.943       .  S
Fe156       O159   2.006   1_545  S
Fe156       O163   2.156   1_545  S
Fe156       O167   2.029       .  S
Fe156       O172   2.120       .  S
Fe156       O166   1.911   1_545  S
Fe157       O175   2.119       .  S
Fe157       O162   2.019   1_565  S
Fe157       O169   2.023       .  S
Fe157       O158   2.163       .  S
Fe157       O166   1.912       .  S
O158        C165   1.298   1_565  A
O159        C173   1.258       .  A
O160        C165   1.279       .  A
O161        C164   1.260       .  A
O162        C174   1.262       .  A
O163        C176   1.297       .  A
C164        O169   1.246       .  A
C164        C821   1.472       .  S
C165        C706   1.492       .  S
O167        C170   1.251       .  A
O168        C170   1.261       .  A
C170        C723   1.461       .  S
O171        C176   1.280       .  A
O172        C174   1.283       .  A
C173        O175   1.278       .  A
C173        C762   1.483       .  S
C174        C692   1.490       .  S
C176        C832   1.491       .  S
Fe177       O193   2.047       .  S
Fe177       O190   2.054       .  S
Fe177      O1335   2.054   1_554  S
Fe177      O1334   2.048   1_554  S
Fe177       O188   1.937       .  S
Fe178       O181   2.018       .  S
Fe178       O185   2.166       .  S
Fe178       O189   2.035       .  S
Fe178       O194   2.123       .  S
Fe178       O188   1.913       .  S
Fe179       O184   2.008       .  S
Fe179       O191   2.028       .  S
Fe179       O180   2.162       .  S
Fe179      O1349   2.120       .  S
Fe179      O1340   1.911       .  S
O180        C187   1.298       .  A
O181        C195   1.261       .  A
O182      Fe1329   2.029       .  S
O182        C187   1.277       .  A
O183      Fe1329   2.063       .  S
O183        C186   1.261       .  A
O184       C1348   1.259       .  A
O185        C198   1.300       .  A
C186        O191   1.248       .  A
C186        C650   1.473       .  S
C187        C664   1.489       .  S
O188      Fe1331   1.917   1_554  S
O189        C192   1.249       .  A
O190        C192   1.258       .  A
C192        C678   1.466       .  S
O193        C198   1.282       .  A
O194        C196   1.282       .  A
C195        O197   1.280       .  A
C195        C779   1.489       .  S
C196       O1336   1.261   1_554  A
C196       C1847   1.491   1_554  S
O197      Fe1331   2.118   1_554  S
C198        C636   1.500       .  S
Fe199       O215   2.012   1_565  S
Fe199       O205   2.098       .  S
Fe199       O212   2.092   1_565  S
Fe199       O204   2.006       .  S
Fe199       O210   1.932       .  S
Fe200       O203   2.033       .  S
Fe200       O207   2.096       .  S
Fe200       O211   2.078       .  S
Fe200       O216   2.124       .  S
Fe200       O210   1.925   1_545  S
Fe201       O219   2.136       .  S
Fe201       O206   2.045       .  S
Fe201       O213   2.092       .  S
Fe201       O202   2.106       .  S
Fe201       O210   1.943       .  S
O202        C209   1.282       .  A
O203        C217   1.260   1_545  A
O204        C209   1.264       .  A
O205        C208   1.273       .  A
O206        C218   1.268       .  A
O207        C220   1.279       .  A
C208        O213   1.277       .  A
C208        C594   1.502       .  S
C209        C583   1.468       .  S
O211        C214   1.272       .  A
O212        C214   1.272       .  A
C214       C1045   1.494       .  S
O215        C220   1.264       .  A
O216        C218   1.279   1_545  A
C217        O219   1.278       .  A
C217        C611   1.491   1_565  S
C218        C622   1.483       .  S
C220       C1059   1.461       .  S
Fe221       O234   2.096       .  S
Fe221       O226   2.025       .  S
Fe221      O1389   2.014       .  S
Fe221      O1379   2.101       .  S
Fe221       O232   1.932       .  S
Fe222       O229   2.100       .  S
Fe222       O233   2.091       .  S
Fe222       O238   2.128       .  S
Fe222      O1377   2.042       .  S
Fe222       O232   1.939       .  S
Fe223       O228   2.035       .  S
Fe223       O224   2.086       .  S
Fe223      O1393   2.112       .  S
Fe223      O1387   2.076       .  S
Fe223       O232   1.935       .  S
O224        C231   1.275       .  A
O225      Fe1374   2.043   1_554  S
O225        C239   1.267       .  A
O226        C231   1.267       .  A
O227      Fe1373   2.097       .  S
O227        C230   1.273   1_556  A
O228        C240   1.264       .  A
O229       C1394   1.281       .  A
C230        O235   1.274       .  A
C230        C734   1.501       .  S
C231        C751   1.476       .  S
O233        C236   1.274       .  A
O234        C236   1.272       .  A
O235      Fe1375   2.085   1_554  S
C236        C566   1.500       .  S
O237      Fe1373   2.012   1_554  S
O237        C242   1.267       .  A
O238        C240   1.280       .  A
C239        O241   1.280   1_554  A
C239        C625   1.486       .  S
C240        C538   1.486       .  S
O241      Fe1375   2.125       .  S
C242       O1381   1.281   1_554  A
C242        C552   1.463       .  S
Fe243       O259   2.000       .  S
Fe243       O249   2.091       .  S
Fe243       O256   2.095       .  S
Fe243       O248   2.004       .  S
Fe243       O254   1.946       .  S
Fe244       O247   2.039       .  S
Fe244       O251   2.110       .  S
Fe244       O255   2.087       .  S
Fe244       O260   2.109       .  S
Fe244       O254   1.945       .  S
Fe245       O263   2.098       .  S
Fe245       O250   2.033       .  S
Fe245       O257   2.080       .  S
Fe245       O246   2.097       .  S
Fe245       O254   1.943       .  S
O246        C253   1.281       .  A
O247        C261   1.269       .  A
O248        C253   1.266       .  A
O249        C252   1.268       .  A
O250        C262   1.268       .  A
O251        C264   1.283       .  A
C252        O257   1.269       .  A
C252        C944   1.502       .  S
C253        C961   1.454       .  S
O255        C258   1.270       .  A
O256        C258   1.268       .  A
C258        C639   1.500       .  S
O259        C264   1.264       .  A
O260        C262   1.277       .  A
C261        O263   1.275       .  A
C261        C541   1.477       .  S
C262        C608   1.485       .  S
C264        C653   1.470       .  S
Fe265       O281   2.014       .  S
Fe265       O271   2.084       .  S
Fe265       O278   2.076       .  S
Fe265       O270   2.006       .  S
Fe265       O276   1.943       .  S
Fe266       O269   2.032       .  S
Fe266       O273   2.106       .  S
Fe266       O277   2.090       .  S
Fe266       O282   2.116       .  S
Fe266       O276   1.941       .  S
Fe267       O285   2.106       .  S
Fe267       O272   2.040       .  S
Fe267       O279   2.081       .  S
Fe267       O268   2.099       .  S
Fe267       O276   1.942       .  S
O268        C275   1.280       .  A
O269        C283   1.268       .  A
O270        C275   1.266       .  A
O271        C274   1.267       .  A
O272        C284   1.266       .  A
O273        C286   1.281       .  A
C274        O279   1.269       .  A
C274        C667   1.495       .  S
C275        C681   1.456       .  S
O277        C280   1.273       .  A
O278        C280   1.266       .  A
C280        C496   1.498       .  S
O281        C286   1.267       .  A
O282        C284   1.279       .  A
C283        O285   1.278       .  A
C283        C524   1.476       .  S
C284        C510   1.486       .  S
C286        C485   1.462       .  S
Fe287       O303   2.020       .  S
Fe287       O293   2.100       .  S
Fe287       O300   2.105       .  S
Fe287       O292   2.023       .  S
Fe287       O298   1.933       .  S
Fe288       O291   2.036       .  S
Fe288       O295   2.090       .  S
Fe288       O299   2.088       .  S
Fe288       O304   2.114       .  S
Fe288       O298   1.945       .  S
Fe289       O307   2.125       .  S
Fe289       O294   2.033       .  S
Fe289       O301   2.088       .  S
Fe289       O290   2.095       .  S
Fe289       O298   1.931       .  S
O290        C297   1.279       .  A
O291        C305   1.268       .  A
O292        C297   1.268       .  A
O293        C296   1.273       .  A
O294        C306   1.261       .  A
O295        C308   1.278       .  A
C296        O301   1.274       .  A
C296       C1017   1.507       .  S
C297       C1031   1.469       .  S
O299        C302   1.275       .  A
O300        C302   1.274       .  A
C302        C709   1.499       .  S
O303        C308   1.266       .  A
O304        C306   1.274       .  A
C305        O307   1.282       .  A
C305        C513   1.478       .  S
C306        C468   1.484       .  S
C308        C720   1.472       .  S
Fe309       O325   2.021       .  S
Fe309       O315   2.095       .  S
Fe309      O1474   2.095       .  S
Fe309      O1466   2.029       .  S
Fe309       O320   1.933       .  S
Fe310       O313   2.034       .  S
Fe310       O317   2.091       .  S
Fe310      O1473   2.085       .  S
Fe310      O1478   2.124       .  S
Fe310       O320   1.937       .  S
Fe311       O329   2.117       .  S
Fe311       O323   2.091       .  S
Fe311       O312   2.086       .  S
Fe311      O1468   2.036       .  S
Fe311       O320   1.947       .  S
O312       C1471   1.275       .  A
O313        C327   1.261       .  A
O314      Fe1461   2.019   1_554  S
O314        C319   1.268       .  A
O315        C318   1.275       .  A
O316      Fe1463   2.031   1_554  S
O316        C328   1.268       .  A
O317        C330   1.279       .  A
C318        O323   1.277       .  A
C318       C1101   1.502       .  S
C319       O1464   1.277   1_554  A
C319       C1115   1.480       .  S
O321      Fe1462   2.081   1_554  S
O321        C324   1.271       .  A
O322      Fe1461   2.099       .  S
O322        C324   1.272   1_556  A
C324        C454   1.504       .  S
O325        C330   1.265       .  A
O326      Fe1462   2.115       .  S
O326        C328   1.279   1_556  A
C327        O329   1.276       .  A
C327        C527   1.484       .  S
C328        C471   1.483       .  S
C330        C440   1.478       .  S
Fe331       O347   2.047       .  S
Fe331       O337   2.068       .  S
Fe331       O344   2.070       .  S
Fe331       O336   2.049       .  S
Fe331       O342   1.941       .  S
Fe332       O335   2.018       .  S
Fe332       O339   2.167       .  S
Fe332       O343   2.029       .  S
Fe332       O348   2.122       .  S
Fe332       O342   1.908       .  S
Fe333       O351   2.116       .  S
Fe333       O338   2.029       .  S
Fe333       O345   2.031       .  S
Fe333       O334   2.163       .  S
Fe333       O342   1.909       .  S
O334        C341   1.300       .  A
O335        C349   1.260       .  A
O336        C341   1.283       .  A
O337        C340   1.259       .  A
O338        C350   1.263       .  A
O339        C352   1.301       .  A
C340        O345   1.246       .  A
C340        C555   1.476       .  S
C341        C457   1.493       .  S
O343        C346   1.249       .  A
O344        C346   1.259       .  A
C346        C443   1.468       .  S
O347        C352   1.282       .  A
O348        C350   1.282       .  A
C349        O351   1.279       .  A
C349        C412   1.489       .  S
C350        C426   1.502       .  S
C352        C569   1.496       .  S
Fe353       O359   2.076       .  S
Fe353       O358   2.042       .  S
Fe353      O1521   2.042   1_554  S
Fe353      O1518   2.074   1_554  S
Fe353       O364   1.944       .  S
Fe354       O357   2.016       .  S
Fe354       O361   2.161       .  S
Fe354       O365   2.033       .  S
Fe354      O1522   2.120       .  S
Fe354      O1516   1.912       .  S
Fe355       O373   2.117       .  S
Fe355       O360   2.020       .  S
Fe355       O367   2.034       .  S
Fe355       O356   2.152       .  S
Fe355       O364   1.913       .  S
O356        C363   1.296       .  A
O357       C1523   1.260       .  A
O358        C363   1.279       .  A
O359        C362   1.261       .  A
O360        C372   1.260       .  A
O361        C374   1.299       .  A
C362        O367   1.252       .  A
C362        C902   1.468       .  S
C363        C499   1.488       .  S
O364      Fe1506   1.914   1_554  S
O365        C368   1.249       .  A
O366      Fe1505   2.071       .  S
O366        C368   1.261       .  A
C368        C482   1.472       .  S
O369      Fe1505   2.043       .  S
O369        C374   1.281       .  A
O370      Fe1506   2.122   1_554  S
O370        C372   1.281       .  A
C371        O373   1.281       .  A
C371       O1509   1.260   1_554  A
C371       C1550   1.482   1_554  S
C372        C429   1.490       .  S
C374        C916   1.493       .  S
Fe375       O391   2.045       .  S
Fe375       O381   2.070       .  S
Fe375       O388   2.083       .  S
Fe375       O380   2.052       .  S
Fe375       O386   1.941       .  S
Fe376       O379   2.022       .  S
Fe376       O383   2.157       .  S
Fe376       O387   2.026       .  S
Fe376       O392   2.116       .  S
Fe376       O386   1.913       .  S
Fe377       O395   2.127       .  S
Fe377       O382   2.012       .  S
Fe377       O389   2.033       .  S
Fe377       O378   2.160       .  S
Fe377       O386   1.913       .  S
O378        C385   1.298       .  A
O379        C393   1.261       .  A
O380        C385   1.281       .  A
O381        C384   1.262       .  A
O382        C394   1.259       .  A
O383        C396   1.298       .  A
C384        O389   1.252       .  A
C384        C793   1.469       .  S
C385        C597   1.497       .  S
O387        C390   1.248       .  A
O388        C390   1.260       .  A
C390        C580   1.482       .  S
O391        C396   1.280       .  A
O392        C394   1.279       .  A
C393        O395   1.283       .  A
C393        C401   1.494       .  S
C394        C415   1.483       .  S
C396        C804   1.494       .  S
C397        C398   1.397       .  A
C397        C402   1.409       .  A
C397        H404   1.084       .  S
C398       C1523   1.493       .  S
C398        C399   1.424       .  A
C399        C400   1.407       .  A
C399        N406   1.434       .  S
C400        C401   1.396       .  A
C400        H405   1.084       .  S
C401        C402   1.425       .  A
C402        N403   1.433       .  S
N403        H407   1.046       .  S
N403        H408   1.046       .  S
N406        H410   1.046       .  S
N406       H1561   1.046       .  S
H409       N1558   1.046       .  S
C411        C412   1.417       .  A
C411        C416   1.401       .  A
C411        H418   1.084       .  S
C412        C413   1.407       .  A
C413        C414   1.403       .  A
C413        N420   1.432       .  S
C414        C415   1.415       .  A
C414        H419   1.085       .  S
C415        C416   1.404       .  A
C416        N417   1.432       .  S
N417        H421   1.045       .  S
N417        H422   1.046       .  S
N420        H423   1.046       .  S
N420        H424   1.045       .  S
C425        C426   1.417       .  A
C425        C430   1.404       .  A
C425        H432   1.084       .  S
C426        C427   1.410       .  A
C427        C428   1.406       .  A
C427        N434   1.431       .  S
C428        C429   1.415       .  A
C428        H433   1.085       .  S
C429        C430   1.413       .  A
C430        N431   1.438       .  S
N431        H435   1.046       .  S
N431        H436   1.040       .  S
N434        H437   1.045       .  S
N434        H438   1.045       .  S
C439        C440   1.402       .  A
C439        C444   1.396       .  A
C439        H446   1.084       .  S
C440        C441   1.420       .  A
C441        C442   1.400       .  A
C441        N448   1.439       .  S
C442        C443   1.398       .  A
C442        H447   1.084       .  S
C443        C444   1.411       .  A
C444        N445   1.433       .  S
N445        H449   1.046       .  S
N445        H450   1.046       .  S
N448        H451   1.046       .  S
N448        H452   1.046       .  S
C453        C454   1.412       .  A
C453        C458   1.409       .  A
C453        H460   1.084       .  S
C454        C455   1.416       .  A
C455        C456   1.413       .  A
C455        N462   1.438       .  S
C456        C457   1.407       .  A
C456        H461   1.084       .  S
C457        C458   1.412       .  A
C458        N459   1.432       .  S
N459        H463   1.045       .  S
N459        H464   1.045       .  S
N462        H465   1.046       .  S
N462        H466   1.046       .  S
C467        C468   1.404       .  A
C467        C472   1.414       .  A
C467       H1626   1.083       .  S
C468        C469   1.415       .  A
C469        C470   1.394       .  A
C469        N476   1.434       .  S
C470        C471   1.400       .  A
C470        H475   1.085       .  S
C471        C472   1.414       .  A
C472       N1625   1.429       .  S
N473       C1624   1.427       .  S
N473        H477   1.046       .  S
N473        H478   1.045       .  S
H474       C1619   1.083       .  S
N476        H479   1.046       .  S
N476        H480   1.046       .  S
C481        C482   1.403       .  A
C481        C486   1.393       .  A
C481        H488   1.084       .  S
C482        C483   1.415       .  A
C483        C484   1.405       .  A
C483        N490   1.438       .  S
C484        C485   1.400       .  A
C484        H489   1.084       .  S
C485        C486   1.405       .  A
C486        N487   1.434       .  S
N487        H491   1.046       .  S
N487        H492   1.046       .  S
N490        H493   1.046       .  S
N490        H494   1.046       .  S
C495        C496   1.404       .  A
C495        C500   1.409       .  A
C495        H502   1.084       .  S
C496        C497   1.427       .  A
C497        C498   1.406       .  A
C497        N504   1.433       .  S
C498        C499   1.399       .  A
C498        H503   1.084       .  S
C499        C500   1.413       .  A
C500        N501   1.433       .  S
N501        H505   1.046       .  S
N501        H506   1.046       .  S
N504        H507   1.044       .  S
N504        H508   1.046       .  S
C509        C510   1.408       .  A
C509        C514   1.395       .  A
C509        H516   1.084       .  S
C510        C511   1.416       .  A
C511        C512   1.414       .  A
C511        N518   1.437       .  S
C512        C513   1.411       .  A
C512        H517   1.084       .  S
C513        C514   1.407       .  A
C514        N515   1.434       .  S
N515        H519   1.045       .  S
N515        H520   1.046       .  S
N518        H521   1.043       .  S
N518        H522   1.046       .  S
C523        C524   1.409       .  A
C523        C528   1.412       .  A
C523        H530   1.081       .  S
C524        C525   1.409       .  A
C525        C526   1.393       .  A
C525        N532   1.440       .  S
C526        C527   1.407       .  A
C526        H531   1.085       .  S
C527        C528   1.417       .  A
C528        N529   1.438       .  S
N529        H533   1.046       .  S
N529        H534   1.042       .  S
N532        H535   1.045       .  S
N532        H536   1.045       .  S
C537        C538   1.405       .  A
C537        C542   1.418   1_565  A
C537        H544   1.083       .  S
C538        C539   1.416       .  A
C539        C540   1.393   1_565  A
C539        N546   1.433       .  S
C540        C541   1.395       .  A
C540        H545   1.085       .  S
C541        C542   1.416       .  A
C542        N543   1.436       .  S
N543        H547   1.045   1_545  S
N543        H548   1.045       .  S
N546        H549   1.046       .  S
N546        H550   1.046       .  S
C551        C552   1.399       .  A
C551        C556   1.397       .  A
C551        H558   1.084       .  S
C552        C553   1.406       .  A
C553        C554   1.392       .  A
C553        N560   1.434       .  S
C554        C555   1.404       .  A
C554        H559   1.083       .  S
C555        C556   1.422       .  A
C556        N557   1.433       .  S
N557        H561   1.045       .  S
N557        H562   1.045       .  S
N560        H564   1.046       .  S
N560       H1715   1.046       .  S
H563       N1712   1.046       .  S
C565        C566   1.403       .  A
C565        C570   1.411       .  A
C565        H572   1.084       .  S
C566        C567   1.418       .  A
C567        C568   1.415       .  A
C567        N574   1.432       .  S
C568        C569   1.403       .  A
C568        H573   1.084       .  S
C569        C570   1.415       .  A
C570        N571   1.433       .  S
N571        H575   1.046       .  S
N571        H576   1.046       .  S
N574        H577   1.046       .  S
N574        H578   1.046       .  S
C579        C580   1.412       .  A
C579       C1736   1.404       .  A
C579        H586   1.083       .  S
C580        C581   1.415       .  A
C581       C1734   1.391       .  A
C581        N588   1.433       .  S
C582        C583   1.404       .  A
C582       C1733   1.390   1_554  A
C582        H587   1.084       .  S
C583        C584   1.405       .  A
C584       C1731   1.400   1_554  A
C584        N585   1.438       .  S
N585        H590   1.045       .  S
N585       H1741   1.046   1_554  S
N588        H591   1.045       .  S
N588       H1744   1.045       .  S
H589       N1737   1.045       .  S
H592       N1740   1.045       .  S
C593        C594   1.413       .  A
C593        C598   1.418       .  A
C593        H600   1.084       .  S
C594        C595   1.412       .  A
C595        C596   1.413       .  A
C595        N602   1.437       .  S
C596        C597   1.408       .  A
C596        H601   1.084       .  S
C597        C598   1.411       .  A
C598        N599   1.437       .  S
N599        H603   1.046       .  S
N599        H604   1.045       .  S
N602        H605   1.046       .  S
N602        H606   1.045       .  S
C607        C608   1.397       .  A
C607        C612   1.392       .  A
C607        H614   1.085       .  S
C608        C609   1.419       .  A
C609        C610   1.422   1_545  A
C609        N616   1.437   1_545  S
C610        C611   1.407   1_565  A
C610        H615   1.083       .  S
C611        C612   1.416       .  A
C612        N613   1.433       .  S
N613        H617   1.046       .  S
N613        H618   1.046       .  S
N616        H619   1.044   1_565  S
N616        H620   1.045       .  S
C621        C622   1.411       .  A
C621        C626   1.413       .  A
C621        H628   1.083       .  S
C622        C623   1.411       .  A
C623       C1776   1.400   1_554  A
C623       N1782   1.439   1_554  S
C624       C1775   1.396       .  A
C624       C1777   1.406       .  A
C624        H629   1.083       .  S
C625        C626   1.414       .  A
C625       C1776   1.407   1_554  A
C626        N627   1.437       .  S
N627        H631   1.046       .  S
N627        H632   1.044       .  S
N630       C1775   1.439       .  S
N630        H633   1.044       .  S
N630        H634   1.046       .  S
C635        C636   1.410       .  A
C635        C640   1.405       .  A
C635        H642   1.084       .  S
C636        C637   1.413       .  A
C637        C638   1.419       .  A
C637        N644   1.437       .  S
C638        C639   1.412       .  A
C638        H643   1.084       .  S
C639        C640   1.414       .  A
C640        N641   1.433       .  S
N641        H645   1.045       .  S
N641        H646   1.045       .  S
N644        H647   1.045       .  S
N644        H648   1.046       .  S
C649        C650   1.399       .  A
C649        C654   1.389       .  A
C649        H656   1.084       .  S
C650        C651   1.418       .  A
C651        C652   1.403       .  A
C651        N658   1.438       .  S
C652        C653   1.401       .  A
C652        H657   1.084       .  S
C653        C654   1.414       .  A
C654        N655   1.434       .  S
N655        H659   1.046       .  S
N655        H660   1.046       .  S
N658        H661   1.046       .  S
N658        H662   1.046       .  S
C663        C664   1.408       .  A
C663        C668   1.401       .  A
C663        H670   1.084       .  S
C664        C665   1.409       .  A
C665        C666   1.416       .  A
C665        N672   1.437       .  S
C666        C667   1.413       .  A
C666        H671   1.084       .  S
C667        C668   1.414       .  A
C668        N669   1.433       .  S
N669        H673   1.045       .  S
N669        H674   1.046       .  S
N672        H675   1.046       .  S
N672        H676   1.046       .  S
C677        C678   1.402       .  A
C677        C682   1.392       .  A
C677        H684   1.084       .  S
C678        C679   1.411       .  A
C679        C680   1.401       .  A
C679        N686   1.432       .  S
C680        C681   1.400       .  A
C680        H685   1.084       .  S
C681        C682   1.408       .  A
C682        N683   1.440       .  S
N683        H687   1.046       .  S
N683        H688   1.046       .  S
N686        H689   1.046       .  S
N686        H690   1.046       .  S
C691        C692   1.417       .  A
C691       C1848   1.409       .  A
C691        H698   1.084       .  S
C692        C693   1.404       .  A
C693        C694   1.406       .  A
C693        N700   1.437       .  S
C694        C695   1.416       .  A
C694        H699   1.084       .  S
C695       C1348   1.489       .  S
C695       C1848   1.404       .  A
C696       C1843   1.409       .  A
C696       C1847   1.403       .  A
C696        N697   1.437   1_556  S
N697        H701   1.046       .  S
N697        H702   1.045       .  S
N700        H703   1.046       .  S
N700        H704   1.046       .  S
C705        C706   1.407       .  A
C705       C1862   1.415       .  A
C705        H712   1.084       .  S
C706        C707   1.407       .  A
C707       C1860   1.414       .  A
C707        N714   1.438       .  S
C708        C709   1.411       .  A
C708       C1859   1.419       .  A
C708        H713   1.084       .  S
C709        C710   1.410   1_554  A
C710       C1857   1.412       .  A
C710        N711   1.438       .  S
N711        H715   1.046       .  S
N711        H716   1.045       .  S
N714        H717   1.046   1_545  S
N714        H718   1.046       .  S
C719        C720   1.402       .  A
C719        C724   1.397       .  A
C719        H726   1.084       .  S
C720        C721   1.415       .  A
C721        C722   1.395       .  A
C721        N728   1.433       .  S
C722        C723   1.397       .  A
C722        H727   1.084       .  S
C723        C724   1.410       .  A
C724        N725   1.433       .  S
N725        H729   1.046       .  S
N725        H730   1.046       .  S
N728        H731   1.046       .  S
N728        H732   1.046       .  S
C733        C734   1.403       .  A
C733        C738   1.405       .  A
C733        H740   1.084       .  S
C734        C735   1.421       .  A
C735        C736   1.416       .  A
C735       N1894   1.438   1_554  S
C736        C737   1.402       .  A
C736        H741   1.084       .  S
C737        C738   1.420       .  A
C738        N739   1.434       .  S
N739        H743   1.044       .  S
N739        H744   1.046       .  S
N742       C1887   1.438       .  S
N742        H745   1.046       .  S
N742        H746   1.046       .  S
C747        C748   1.402       .  A
C747        C752   1.399       .  A
C747        H754   1.084       .  S
C748        C749   1.401       .  A
C749        C750   1.394       .  A
C749        N756   1.433       .  S
C750        C751   1.409       .  A
C750        H755   1.084       .  S
C751        C752   1.415       .  A
C752        N753   1.438       .  S
N753        H757   1.046       .  S
N753        H758   1.045       .  S
N756        H759   1.046       .  S
N756        H760   1.046       .  S
C761        C762   1.416       .  A
C761        C766   1.407       .  A
C761        H768   1.084       .  S
C762        C763   1.399       .  A
C763        C764   1.405       .  A
C763        N770   1.432       .  S
C764        C765   1.417       .  A
C764        H769   1.084       .  S
C765        C766   1.403       .  A
C766        N767   1.437       .  S
N767        H771   1.046       .  S
N767        H772   1.045       .  S
N770        H773   1.046       .  S
N770        H774   1.046       .  S
C775        C776   1.416       .  A
C775        C780   1.409       .  A
C775        H782   1.084       .  S
C776        C777   1.400       .  A
C777        C778   1.405   1_565  A
C777        N784   1.432   1_565  S
C778        C779   1.416       .  A
C778        H783   1.084       .  S
C779        C780   1.405   1_545  A
C780        N781   1.437       .  S
N781        H785   1.046       .  S
N781        H786   1.045       .  S
N784        H787   1.046       .  S
N784        H788   1.045       .  S
C789        C790   1.409       .  A
C789        C794   1.394       .  A
C789        H796   1.083       .  S
C790        C791   1.410       .  A
C791        C792   1.401       .  A
C791        N798   1.432       .  S
C792        C793   1.406       .  A
C792        H797   1.084       .  S
C793        C794   1.403       .  A
C794        N795   1.433       .  S
N795        H799   1.046       .  S
N795        H800   1.046       .  S
N798        H801   1.046       .  S
N798        H802   1.046       .  S
C803        C804   1.409       .  A
C803        C808   1.413       .  A
C803        H810   1.084       .  S
C804       C1957   1.406       .  A
C805        C806   1.414       .  A
C805       C1956   1.407   1_554  A
C805        N812   1.432       .  S
C806        C807   1.414       .  A
C806        H811   1.084       .  S
C807       C1960   1.416   1_554  A
C808       C1959   1.414       .  A
C808        N809   1.437       .  S
N809        H813   1.046       .  S
N809       H1966   1.045       .  S
N812        H815   1.045       .  S
N812        H816   1.046       .  S
H814       N1961   1.045       .  S
C817        C818   1.403       .  A
C817        C822   1.398   1_554  A
C817        H824   1.083       .  S
C818       C1971   1.415   1_554  A
C819        C820   1.395       .  A
C819       C1970   1.415       .  A
C819        N826   1.433       .  S
C820        C821   1.400       .  A
C820        H825   1.084       .  S
C821       C1974   1.416       .  A
C822       C1973   1.415       .  A
C822        N823   1.439       .  S
N823        H827   1.046       .  S
N823        H828   1.046       .  S
N826        H830   1.046       .  S
N826       H1981   1.046       .  S
H829       N1978   1.046       .  S
C831        C832   1.401       .  A
C831        C836   1.411       .  A
C831        H838   1.084       .  S
C832        C833   1.422       .  A
C833        C834   1.411       .  A
C833        N840   1.439       .  S
C834        C835   1.406       .  A
C834        H839   1.084       .  S
C835        C836   1.420       .  A
C836        N837   1.432       .  S
N837        H841   1.046       .  S
N837        H842   1.046       .  S
N840        H843   1.043       .  S
N840        H844   1.046       .  S
C845       C1998   1.412       .  A
C845       C2002   1.420       .  A
C845        H852   1.083       .  S
C846        C847   1.408       .  A
C846       C1997   1.412       .  A
C847        C848   1.401       .  A
C847        N854   1.438       .  S
C848        C849   1.406       .  A
C848        H853   1.083       .  S
C849        C850   1.410   1_455  A
C850       C1997   1.420   1_655  A
C850       N2003   1.436       .  S
N851       C2002   1.436   1_655  S
N851        H855   1.046       .  S
N851        H856   1.045       .  S
N854        H857   1.045       .  S
N854        H858   1.046       .  S
C859        C860   1.403       .  A
C859        C864   1.390       .  A
C859        H866   1.083       .  S
C860        C861   1.415       .  A
C861        C862   1.401       .  A
C861        N868   1.438       .  S
C862        C863   1.399       .  A
C862        H867   1.084       .  S
C863        C864   1.408       .  A
C864        N865   1.440       .  S
N865        H869   1.045       .  S
N865        H870   1.046       .  S
N868        H871   1.046       .  S
N868        H872   1.046       .  S
C873        C874   1.410       .  A
C873        C878   1.411       .  A
C873        H880   1.084       .  S
C874        C875   1.410       .  A
C875        C876   1.409       .  A
C875        N882   1.438       .  S
C876        C877   1.409       .  A
C876        H881   1.084       .  S
C877        C878   1.408       .  A
C878        N879   1.437       .  S
N879        H883   1.046       .  S
N879        H884   1.045       .  S
N882        H885   1.046       .  S
N882        H886   1.046       .  S
C887        C888   1.406       .  A
C887        C892   1.392       .  A
C887        H894   1.084       .  S
C888        C889   1.407       .  A
C889        C890   1.415       .  A
C889        N896   1.436   1_655  S
C890        C891   1.410       .  A
C890        H895   1.084       .  S
C891        C892   1.405       .  A
C892        N893   1.434       .  S
N893        H897   1.045       .  S
N893        H898   1.046       .  S
N896        H899   1.046       .  S
N896        H900   1.046       .  S
C901        C902   1.404       .  A
C901        C906   1.392       .  A
C901        H908   1.084       .  S
C902        C903   1.410       .  A
C903        C904   1.395       .  A
C903        N910   1.433       .  S
C904        C905   1.409       .  A
C904        H909   1.084       .  S
C905        C906   1.415       .  A
C906        N907   1.433       .  S
N907        H911   1.045       .  S
N907        H912   1.046       .  S
N910        H913   1.046       .  S
N910        H914   1.043       .  S
C915        C916   1.403       .  A
C915        C920   1.409       .  A
C915        H922   1.084       .  S
C916        C917   1.415       .  A
C917        C918   1.409       .  A
C917        N924   1.433       .  S
C918        C919   1.403       .  A
C918        H923   1.084       .  S
C919        C920   1.422       .  A
C920        N921   1.432       .  S
N921        H925   1.044       .  S
N921        H926   1.046       .  S
N924        H928   1.046       .  S
N924       H2079   1.046       .  S
H927       N2076   1.046       .  S
C929        C930   1.402       .  A
C929        C934   1.414   1_455  A
C929        H936   1.083       .  S
C930        C931   1.415   1_455  A
C931        C932   1.392       .  A
C931        N938   1.433   1_655  S
C932        C933   1.394       .  A
C932        H937   1.085       .  S
C933        C934   1.414       .  A
C934        N935   1.437       .  S
N935        H939   1.045       .  S
N935        H940   1.045       .  S
N938        H941   1.046   1_455  S
N938        H942   1.046   1_455  S
C943        C944   1.405       .  A
C943        C948   1.404       .  A
C943        H950   1.084       .  S
C944        C945   1.422       .  A
C945        C946   1.416       .  A
C945        N952   1.437       .  S
C946        C947   1.402       .  A
C946        H951   1.084       .  S
C947        C948   1.418       .  A
C948        N949   1.433       .  S
N949        H953   1.044       .  S
N949       H2106   1.044       .  S
N952        H955   1.046       .  S
N952        H956   1.045       .  S
H954       N2101   1.043       .  S
C957        C958   1.402       .  A
C957        C962   1.392       .  A
C957        H964   1.084       .  S
C958        C959   1.413       .  A
C959        C960   1.400       .  A
C959        N966   1.438       .  S
C960        C961   1.399       .  A
C960        H965   1.084       .  S
C961        C962   1.409       .  A
C962        N963   1.440       .  S
N963        H967   1.046       .  S
N963        H968   1.045       .  S
N966        H969   1.046       .  S
N966        H970   1.046       .  S
C971        C972   1.407       .  A
C971        C976   1.417       .  A
C971        H978   1.083       .  S
C972        C973   1.412       .  A
C973        C974   1.404       .  A
C973        N980   1.433       .  S
C974        C975   1.405       .  A
C974        H979   1.084       .  S
C975        C976   1.426       .  A
C976        N977   1.439       .  S
N977        H981   1.046       .  S
N977        H982   1.041       .  S
N980        H983   1.046       .  S
N980        H984   1.046       .  S
C985        C986   1.405       .  A
C985        C990   1.393       .  A
C985        H992   1.084       .  S
C986        C987   1.414       .  A
C987        C988   1.393       .  A
C987        N994   1.434       .  S
C988        C989   1.409       .  A
C988        H993   1.084       .  S
C989        C990   1.418       .  A
C990        N991   1.433       .  S
N991        H995   1.045       .  S
N991        H996   1.045       .  S
N994        H998   1.044       .  S
N994       H2149   1.046       .  S
H997       N2146   1.046       .  S
C999       C1000   1.415       .  A
C999       C1004   1.401       .  A
C999       H1006   1.085       .  S
C1000      C1001   1.405       .  A
C1001      C1002   1.400       .  A
C1001      N1008   1.432       .  S
C1002      C1003   1.416       .  A
C1002      H1007   1.084       .  S
C1003      C1216   1.486       .  S
C1003      C1004   1.407       .  A
C1004      N2157   1.432       .  S
N1005      C2156   1.432       .  S
N1005      H1009   1.046       .  S
N1005      H1010   1.045       .  S
N1008      H1011   1.046       .  S
N1008      H1012   1.044       .  S
C1013      C1014   1.401       .  A
C1013      C1018   1.413       .  A
C1013      H1020   1.084       .  S
C1014      C1015   1.416       .  A
C1015      C1016   1.415       .  A
C1015      N1022   1.438       .  S
C1016      C1017   1.407       .  A
C1016      H1021   1.083       .  S
C1017      C1018   1.420       .  A
C1018      N1019   1.432       .  S
N1019      H1023   1.046       .  S
N1019      H1024   1.046       .  S
N1022      H1025   1.046       .  S
N1022      H1026   1.046       .  S
C1027      C1028   1.398       .  A
C1027      C1032   1.391       .  A
C1027      H1034   1.085       .  S
C1028      C2181   1.412       .  A
C1029      C1030   1.405   1_556  A
C1029      C2180   1.414       .  A
C1029      N1036   1.438       .  S
C1030      C1031   1.403       .  A
C1030      H1035   1.084       .  S
C1031      C2184   1.407       .  A
C1032      C2183   1.415       .  A
C1032      N1033   1.434       .  S
N1033      H1037   1.046       .  S
N1033      H2190   1.046       .  S
N1036      H1039   1.046       .  S
N1036      H1040   1.046       .  S
H1038      N2185   1.046       .  S
C1041      C1042   1.404       .  A
C1041      C1046   1.406       .  A
C1041      H1048   1.084       .  S
C1042      C2195   1.407       .  A
C1043      C1044   1.413       .  A
C1043      C2194   1.409   1_554  A
C1043      N1050   1.438       .  S
C1044      C1045   1.412       .  A
C1044      H1049   1.084       .  S
C1045      C2198   1.415       .  A
C1046      C2197   1.421       .  A
C1046      N1047   1.432       .  S
N1047      H1051   1.045       .  S
N1047      H1052   1.046       .  S
N1050      H1053   1.046       .  S
N1050      H1054   1.046       .  S
C1055      C1056   1.403       .  A
C1055      C1060   1.393       .  A
C1055      H1062   1.084       .  S
C1056      C1057   1.412       .  A
C1057      C1058   1.399       .  A
C1057      N1064   1.433       .  S
C1058      C1059   1.399       .  A
C1058      H1063   1.084       .  S
C1059      C1060   1.408       .  A
C1060      N1061   1.434       .  S
N1061      H1065   1.046       .  S
N1061      H1066   1.046       .  S
N1064      H1067   1.046       .  S
N1064      H1068   1.046       .  S
C1069      C1070   1.419       .  A
C1069      C1074   1.407       .  A
C1069      H1076   1.083       .  S
C1070      C1071   1.409       .  A
C1071      C1072   1.401   1_655  A
C1071      N1078   1.432   1_655  S
C1072      C1073   1.414       .  A
C1072      H1077   1.085       .  S
C1073      C1074   1.403   1_455  A
C1074      N1075   1.437       .  S
N1075      H1079   1.046       .  S
N1075      H1080   1.045       .  S
N1078      H1081   1.045   1_455  S
N1078      H1082   1.045   1_455  S
C1083      C1084   1.397       .  A
C1083      C1088   1.399       .  A
C1083      H1090   1.085       .  S
C1084      C1085   1.412       .  A
C1085      C1086   1.415       .  A
C1085      N1092   1.436       .  S
C1086      C1087   1.405       .  A
C1086      H1091   1.083       .  S
C1087      C1088   1.419       .  A
C1088      N1089   1.440   1_455  S
N1089      H1093   1.046       .  S
N1089      H1094   1.045       .  S
N1092      H1095   1.045       .  S
N1092      H1096   1.046       .  S
C1097      C1098   1.408       .  A
C1097      C1102   1.421       .  A
C1097      H1104   1.083       .  S
C1098      C1099   1.410       .  A
C1099      C1100   1.407       .  A
C1099      N1106   1.433       .  S
C1100      C1101   1.407       .  A
C1100      H1105   1.084       .  S
C1101      C1102   1.417       .  A
C1102      N1103   1.437       .  S
N1103      H1107   1.046       .  S
N1103      H1108   1.046       .  S
N1106      H1109   1.046       .  S
N1106      H1110   1.046       .  S
C1111      C1112   1.406       .  A
C1111      C1116   1.394       .  A
C1111      H1118   1.084       .  S
C1112      C1113   1.414       .  A
C1113      C1114   1.390       .  A
C1113      N1120   1.433       .  S
C1114      C1115   1.408       .  A
C1114      H1119   1.084       .  S
C1115      C1116   1.417       .  A
C1116      N2269   1.433       .  S
N1117      C2268   1.433       .  S
N1117      H1121   1.045       .  S
N1117      H1122   1.046       .  S
N1120      H1123   1.046       .  S
N1120      H1124   1.044       .  S
C1125      C1126   1.414       .  A
C1125      C1130   1.406       .  A
C1125      H1132   1.084       .  S
C1126      C1127   1.417       .  A
C1127      C1128   1.411       .  A
C1127      N1134   1.437       .  S
C1128      C1129   1.404       .  A
C1128      H1133   1.084       .  S
C1129      C1130   1.409       .  A
C1130      N1131   1.433       .  S
N1131      H1135   1.045       .  S
N1131      H1136   1.046       .  S
N1134      H1137   1.046       .  S
N1134      H1138   1.046       .  S
C1139      C1140   1.409       .  A
C1139      C1144   1.404       .  A
C1139      H1146   1.083       .  S
C1140      C1141   1.408       .  A
C1141      C1142   1.396       .  A
C1141      N1148   1.433       .  S
C1142      C1143   1.408       .  A
C1142      H1147   1.084       .  S
C1143      C1144   1.411       .  A
C1144      N1145   1.438       .  S
N1145      H1149   1.046       .  S
N1145      H1150   1.046       .  S
N1148      H1151   1.046       .  S
N1148      H1152   1.046       .  S
Fe1153     O1169   2.049       .  S
Fe1153     O1159   2.072       .  S
Fe1153     O1166   2.070       .  S
Fe1153     O1158   2.043       .  S
Fe1153     O1164   1.944       .  S
Fe1154     O1157   2.013       .  S
Fe1154     O1161   2.148       .  S
Fe1154     O1165   2.031       .  S
Fe1154     O1170   2.118       .  S
Fe1154     O1164   1.917       .  S
Fe1155     O1173   2.133       .  S
Fe1155     O1160   2.016       .  S
Fe1155     O1167   2.034       .  S
Fe1155     O1156   2.166       .  S
Fe1155     O1164   1.916       .  S
O1156      C1163   1.299       .  A
O1157      C1171   1.259       .  A
O1158      C1163   1.279       .  A
O1159      C1162   1.261       .  A
O1160      C1172   1.259       .  A
O1161      C1174   1.295       .  A
C1162      O1167   1.252       .  A
C1162      C2292   1.477       .  S
C1163      C2250   1.501       .  S
O1165      C1168   1.252       .  A
O1166      C1168   1.261       .  A
C1168      C2264   1.465       .  S
O1169      C1174   1.279       .  A
O1170      C1172   1.280       .  A
C1171      O1173   1.284       .  A
C1171      C2225   1.490       .  S
C1172      C2236   1.484       .  S
C1174      C2281   1.486       .  S
Fe1175     O1191   2.049       .  S
Fe1175     O1181   2.053       .  S
Fe1175     O1188   2.047   1_655  S
Fe1175     O1180   2.046   1_655  S
Fe1175     O1186   1.935       .  S
Fe1176     O1179   2.030   1_455  S
Fe1176     O1183   2.146   1_455  S
Fe1176     O1187   2.045       .  S
Fe1176     O1192   2.117       .  S
Fe1176     O1186   1.914   1_455  S
Fe1177     O1195   2.116       .  S
Fe1177     O1182   2.018   1_655  S
Fe1177     O1189   2.034       .  S
Fe1177     O1178   2.165       .  S
Fe1177     O1186   1.911       .  S
O1178      C1185   1.300   1_655  A
O1179      C1193   1.263       .  A
O1180      C1185   1.282       .  A
O1181      C1184   1.256       .  A
O1182      C1194   1.260       .  A
O1183      C1196   1.297       .  A
C1184      O1189   1.249       .  A
C1184      C2208   1.472       .  S
C1185      C2166   1.491       .  S
O1187      C1190   1.253       .  A
O1188      C1190   1.257       .  A
C1190      C2180   1.476       .  S
O1191      C1196   1.283       .  A
O1192      C1194   1.282       .  A
C1193      O1195   1.280       .  A
C1193      C2152   1.495       .  S
C1194      C2239   1.488       .  S
C1196      C2194   1.485       .  S
Fe1197     O1213   2.046       .  S
Fe1197     O1210   2.057       .  S
Fe1197     O1208   1.945       .  S
Fe1198     O1201   2.018       .  S
Fe1198     O1205   2.152       .  S
Fe1198     O1209   2.034       .  S
Fe1198     O1214   2.107       .  S
Fe1198     O1208   1.915       .  S
Fe1199     O1204   2.027       .  S
Fe1199     O1211   2.043       .  S
Fe1199     O1200   2.145       .  S
O1200      C1207   1.294       .  A
O1201      C1215   1.260       .  A
O1202      C1207   1.279       .  A
O1203      C1206   1.257       .  A
O1205      C1218   1.298       .  A
C1206      O1211   1.256       .  A
C1206      C2138   1.473       .  S
C1207      C2099   1.484       .  S
O1209      C1212   1.249       .  A
O1210      C1212   1.258       .  A
C1212      C2110   1.475       .  S
O1213      C1218   1.281       .  A
O1214      C1216   1.279       .  A
C1215      O1217   1.282       .  A
C1215      C2222   1.500       .  S
C1218      C2124   1.495       .  S
Fe1219     O1235   2.031       .  S
Fe1219     O1225   2.068       .  S
Fe1219     O1232   2.070       .  S
Fe1219     O1224   2.033       .  S
Fe1219     O1230   1.962       .  S
Fe1220     O1223   2.049       .  S
Fe1220     O1227   2.086       .  S
Fe1220     O1231   2.083       .  S
Fe1220     O1236   2.079       .  S
Fe1220     O1230   1.963       .  S
Fe1221     O1239   2.092       .  S
Fe1221     O1226   2.043       .  S
Fe1221     O1233   2.092       .  S
Fe1221     O1222   2.087       .  S
Fe1221     O1230   1.963       .  S
O1222      C1229   1.277       .  A
O1223      C1237   1.267       .  A
O1224      C1229   1.272       .  A
O1225      C1228   1.264       .  A
O1226      C1238   1.268       .  A
O1227      C1240   1.279       .  A
C1228      O1233   1.269       .  A
C1228      C2127   1.501       .  S
C1229      C2141   1.484       .  S
O1231      C1234   1.267       .  A
O1232      C1234   1.262       .  A
C1234      C2071   1.498       .  S
O1235      C1240   1.272       .  A
O1236      C1238   1.272       .  A
C1237      O1239   1.274       .  A
C1237      C2043   1.476       .  S
C1238      C2085   1.467       .  S
C1240      C2057   1.478       .  S
Fe1241     O1254   2.093       .  S
Fe1241     O1246   2.016       .  S
Fe1241     O1252   1.925       .  S
Fe1242     O1249   2.093       .  S
Fe1242     O1253   2.083       .  S
Fe1242     O1258   2.117       .  S
Fe1242     O1252   1.938       .  S
Fe1243     O1248   2.026       .  S
Fe1243     O1244   2.103       .  S
Fe1243     O1252   1.924       .  S
O1244      C1251   1.281       .  A
O1245      C1259   1.266       .  A
O1246      C1251   1.266       .  A
O1247      C1250   1.272       .  A
O1248      C1260   1.260       .  A
C1250      O1255   1.274       .  A
C1250      C2278   1.510       .  S
C1251      C2295   1.477       .  S
O1253      C1256   1.274       .  A
O1254      C1256   1.272       .  A
C1256      C2026   1.490       .  S
O1257      C1262   1.264       .  A
O1258      C1260   1.275       .  A
C1259      O1261   1.284       .  A
C1259      C1998   1.487       .  S
C1260      C2082   1.478       .  S
C1262      C2015   1.463       .  S
Fe1263     O1279   2.012   1_655  S
Fe1263     O1269   2.090       .  S
Fe1263     O1276   2.085   1_655  S
Fe1263     O1268   2.015       .  S
Fe1263     O1274   1.934       .  S
Fe1264     O1267   2.045       .  S
Fe1264     O1271   2.100       .  S
Fe1264     O1275   2.091       .  S
Fe1264     O1280   2.124       .  S
Fe1264     O1274   1.940   1_455  S
Fe1265     O1283   2.120       .  S
Fe1265     O1270   2.039       .  S
Fe1265     O1277   2.090       .  S
Fe1265     O1266   2.103       .  S
Fe1265     O1274   1.939       .  S
O1266      C1273   1.280       .  A
O1267      C1281   1.266       .  A
O1268      C1273   1.266       .  A
O1269      C1272   1.271       .  A
O1270      C1282   1.268       .  A
O1271      C1284   1.281       .  A
C1272      O1277   1.274       .  A
C1272      C1959   1.500       .  S
C1273      C1942   1.480       .  S
O1275      C1278   1.275       .  A
O1276      C1278   1.271       .  A
C1278      C1987   1.509       .  S
O1279      C1284   1.264       .  A
O1280      C1282   1.281   1_455  A
C1281      O1283   1.277   1_455  A
C1281      C2001   1.489       .  S
C1282      C2040   1.482       .  S
C1284      C1970   1.472       .  S
Fe1285     O1301   2.045       .  S
Fe1285     O1291   2.064       .  S
Fe1285     O1298   2.051       .  S
Fe1285     O1290   2.038       .  S
Fe1285     O1296   1.940       .  S
Fe1286     O1289   2.012       .  S
Fe1286     O1293   2.155       .  S
Fe1286     O1297   2.038       .  S
Fe1286     O1302   2.125       .  S
Fe1286     O1296   1.916       .  S
Fe1287     O1305   2.120       .  S
Fe1287     O1292   2.017       .  S
Fe1287     O1299   2.032       .  S
Fe1287     O1288   2.156       .  S
Fe1287     O1296   1.912       .  S
O1288      C1295   1.298       .  A
O1289      C1303   1.259       .  A
O1290      C1295   1.279       .  A
O1291      C1294   1.258       .  A
O1292      C1304   1.261       .  A
O1293      C1306   1.297       .  A
C1294      O1299   1.250       .  A
C1294      C1900   1.470       .  S
C1295      C2029   1.496       .  S
O1297      C1300   1.253       .  A
O1298      C1300   1.260       .  A
C1300      C2012   1.473       .  S
O1301      C1306   1.280       .  A
O1302      C1304   1.283       .  A
C1303      O1305   1.280       .  A
C1303      C1928   1.488       .  S
C1304      C1917   1.490       .  S
C1306      C1889   1.490       .  S
Fe1307     O1323   2.049       .  S
Fe1307     O1313   2.057       .  S
Fe1307     O1320   2.053   1_565  S
Fe1307     O1312   2.044   1_565  S
Fe1307     O1318   1.941       .  S
Fe1308     O1311   2.023   1_545  S
Fe1308     O1315   2.156   1_545  S
Fe1308     O1319   2.040       .  S
Fe1308     O1324   2.128       .  S
Fe1308     O1318   1.914   1_545  S
Fe1309     O1327   2.121       .  S
Fe1309     O1314   2.007   1_565  S
Fe1309     O1321   2.029       .  S
Fe1309     O1310   2.169   1_565  S
Fe1309     O1318   1.910       .  S
O1310      C1317   1.301       .  A
O1311      C1325   1.262       .  A
O1312      C1317   1.280       .  A
O1313      C1316   1.258       .  A
O1314      C1326   1.259       .  A
O1315      C1328   1.298       .  A
C1316      O1321   1.247       .  A
C1316      C1973   1.464       .  S
C1317      C1858   1.505       .  S
O1319      C1322   1.253       .  A
O1320      C1322   1.258       .  A
C1322      C1875   1.471       .  S
O1323      C1328   1.280       .  A
O1324      C1326   1.283       .  A
C1325      O1327   1.281       .  A
C1325      C1914   1.494       .  S
C1326      C1844   1.487       .  S
C1328      C1984   1.487       .  S
Fe1329     O1345   2.033       .  S
Fe1329     O1342   2.060       .  S
Fe1329     O1340   1.939       .  S
Fe1330     O1333   2.016       .  S
Fe1330     O1337   2.152       .  S
Fe1330     O1341   2.034       .  S
Fe1330     O1346   2.122       .  S
Fe1330     O1340   1.913       .  S
Fe1331     O1336   2.016       .  S
Fe1331     O1343   2.035   1_556  S
Fe1331     O1332   2.155       .  S
O1332      C1339   1.297       .  A
O1333      C1347   1.261       .  A
O1334      C1339   1.281       .  A
O1335      C1338   1.259       .  A
O1337      C1350   1.296       .  A
C1338      O1343   1.251   1_556  A
C1338      C1802   1.471       .  S
C1339      C1816   1.491       .  S
O1341      C1344   1.251       .  A
O1342      C1344   1.262       .  A
C1344      C1830   1.472       .  S
O1345      C1350   1.277       .  A
O1346      C1348   1.281       .  A
C1347      O1349   1.281       .  A
C1347      C1931   1.488       .  S
C1350      C1788   1.483       .  S
Fe1351     O1367   2.012   1_565  S
Fe1351     O1357   2.098       .  S
Fe1351     O1364   2.102   1_565  S
Fe1351     O1356   2.005       .  S
Fe1351     O1362   1.925       .  S
Fe1352     O1355   2.035       .  S
Fe1352     O1359   2.089       .  S
Fe1352     O1363   2.071       .  S
Fe1352     O1368   2.113       .  S
Fe1352     O1362   1.926   1_545  S
Fe1353     O1371   2.143       .  S
Fe1353     O1358   2.041       .  S
Fe1353     O1365   2.095       .  S
Fe1353     O1354   2.118       .  S
Fe1353     O1362   1.940       .  S
O1354      C1361   1.283       .  A
O1355      C1369   1.260   1_545  A
O1356      C1361   1.264       .  A
O1357      C1360   1.274       .  A
O1358      C1370   1.268       .  A
O1359      C1372   1.277       .  A
C1360      O1365   1.277       .  A
C1360      C1746   1.501       .  S
C1361      C1735   1.475       .  S
O1363      C1366   1.271       .  A
O1364      C1366   1.276       .  A
C1366      C2197   1.505       .  S
O1367      C1372   1.262       .  A
O1368      C1370   1.277   1_545  A
C1369      O1371   1.280       .  A
C1369      C1763   1.493   1_565  S
C1370      C1774   1.475       .  S
C1372      C2211   1.466       .  S
Fe1373     O1386   2.095       .  S
Fe1373     O1378   2.011       .  S
Fe1373     O1384   1.934       .  S
Fe1374     O1381   2.104       .  S
Fe1374     O1385   2.093       .  S
Fe1374     O1390   2.125       .  S
Fe1374     O1384   1.942       .  S
Fe1375     O1380   2.038       .  S
Fe1375     O1376   2.102       .  S
Fe1375     O1384   1.935       .  S
O1376      C1383   1.280       .  A
O1377      C1391   1.265       .  A
O1378      C1383   1.265       .  A
O1379      C1382   1.275       .  A
O1380      C1392   1.264       .  A
C1382      O1387   1.274       .  A
C1382      C1886   1.501       .  S
C1383      C1903   1.478       .  S
O1385      C1388   1.275       .  A
O1386      C1388   1.272       .  A
C1388      C1718   1.507       .  S
O1389      C1394   1.267       .  A
O1390      C1392   1.278       .  A
C1391      O1393   1.275       .  A
C1391      C1777   1.480       .  S
C1392      C1690   1.487       .  S
C1394      C1704   1.460       .  S
Fe1395     O1411   2.015       .  S
Fe1395     O1401   2.090       .  S
Fe1395     O1408   2.086       .  S
Fe1395     O1400   2.012       .  S
Fe1395     O1406   1.940       .  S
Fe1396     O1399   2.032       .  S
Fe1396     O1403   2.100       .  S
Fe1396     O1407   2.074       .  S
Fe1396     O1412   2.112       .  S
Fe1396     O1406   1.938       .  S
Fe1397     O1415   2.110       .  S
Fe1397     O1402   2.034       .  S
Fe1397     O1409   2.077       .  S
Fe1397     O1398   2.099       .  S
Fe1397     O1406   1.937       .  S
O1398      C1405   1.280       .  A
O1399      C1413   1.269       .  A
O1400      C1405   1.264       .  A
O1401      C1404   1.271       .  A
O1402      C1414   1.267       .  A
O1403      C1416   1.279       .  A
C1404      O1409   1.270       .  A
C1404      C2096   1.495       .  S
C1405      C2113   1.472       .  S
O1407      C1410   1.270       .  A
O1408      C1410   1.270       .  A
C1410      C1791   1.494       .  S
O1411      C1416   1.266       .  A
O1412      C1414   1.276       .  A
C1413      O1415   1.278       .  A
C1413      C1693   1.479       .  S
C1414      C1760   1.490       .  S
C1416      C1805   1.463       .  S
Fe1417     O1433   2.010       .  S
Fe1417     O1423   2.096       .  S
Fe1417     O1430   2.092       .  S
Fe1417     O1422   2.004       .  S
Fe1417     O1428   1.934       .  S
Fe1418     O1421   2.030       .  S
Fe1418     O1425   2.106       .  S
Fe1418     O1429   2.085       .  S
Fe1418     O1434   2.119       .  S
Fe1418     O1428   1.937       .  S
Fe1419     O1437   2.116       .  S
Fe1419     O1424   2.038       .  S
Fe1419     O1431   2.079       .  S
Fe1419     O1420   2.103       .  S
Fe1419     O1428   1.938       .  S
O1420      C1427   1.281       .  A
O1421      C1435   1.268       .  A
O1422      C1427   1.263       .  A
O1423      C1426   1.272       .  A
O1424      C1436   1.264       .  A
O1425      C1438   1.281       .  A
C1426      O1431   1.270       .  A
C1426      C1819   1.498       .  S
C1427      C1833   1.471       .  S
O1429      C1432   1.274       .  A
O1430      C1432   1.271       .  A
C1432      C1648   1.499       .  S
O1433      C1438   1.265       .  A
O1434      C1436   1.278       .  A
C1435      O1437   1.279       .  A
C1435      C1676   1.478       .  S
C1436      C1662   1.481       .  S
C1438      C1637   1.461       .  S
Fe1439     O1455   2.012       .  S
Fe1439     O1445   2.101       .  S
Fe1439     O1452   2.095       .  S
Fe1439     O1444   2.018       .  S
Fe1439     O1450   1.932       .  S
Fe1440     O1443   2.041       .  S
Fe1440     O1447   2.098       .  S
Fe1440     O1451   2.091       .  S
Fe1440     O1456   2.124       .  S
Fe1440     O1450   1.943       .  S
Fe1441     O1459   2.111       .  S
Fe1441     O1446   2.031       .  S
Fe1441     O1453   2.082       .  S
Fe1441     O1442   2.085       .  S
Fe1441     O1450   1.932       .  S
O1442      C1449   1.277       .  A
O1443      C1457   1.267       .  A
O1444      C1449   1.265       .  A
O1445      C1448   1.274       .  A
O1446      C1458   1.262       .  A
O1447      C1460   1.281       .  A
C1448      O1453   1.274       .  A
C1448      C2169   1.505       .  S
C1449      C2183   1.474       .  S
O1451      C1454   1.274       .  A
O1452      C1454   1.273       .  A
C1454      C1861   1.509       .  S
O1455      C1460   1.266       .  A
O1456      C1458   1.278       .  A
C1457      O1459   1.276       .  A
C1457      C1665   1.478       .  S
C1458      C1620   1.482       .  S
C1460      C1872   1.462       .  S
Fe1461     O1477   2.020       .  S
Fe1461     O1467   2.103       .  S
Fe1461     O1472   1.935       .  S
Fe1462     O1465   2.038       .  S
Fe1462     O1469   2.091       .  S
Fe1462     O1472   1.933       .  S
Fe1463     O1481   2.113       .  S
Fe1463     O1475   2.086       .  S
Fe1463     O1464   2.093       .  S
Fe1463     O1472   1.935       .  S
O1465      C1479   1.265       .  A
O1466      C1471   1.268       .  A
O1467      C1470   1.273       .  A
O1468      C1480   1.269       .  A
O1469      C1482   1.280       .  A
C1470      O1475   1.274       .  A
C1470      C2253   1.500       .  S
C1471      C2267   1.480       .  S
O1473      C1476   1.273       .  A
O1474      C1476   1.273       .  A
C1476      C1606   1.499       .  S
O1477      C1482   1.268       .  A
O1478      C1480   1.280       .  A
C1479      O1481   1.277       .  A
C1479      C1679   1.485       .  S
C1480      C1623   1.484       .  S
C1482      C1592   1.468       .  S
Fe1483     O1499   2.052       .  S
Fe1483     O1489   2.072       .  S
Fe1483     O1496   2.068       .  S
Fe1483     O1488   2.049       .  S
Fe1483     O1494   1.942       .  S
Fe1484     O1487   2.013       .  S
Fe1484     O1491   2.166       .  S
Fe1484     O1495   2.022       .  S
Fe1484     O1500   2.117       .  S
Fe1484     O1494   1.906       .  S
Fe1485     O1503   2.110       .  S
Fe1485     O1490   2.027       .  S
Fe1485     O1497   2.027       .  S
Fe1485     O1486   2.162       .  S
Fe1485     O1494   1.909       .  S
O1486      C1493   1.300       .  A
O1487      C1501   1.260       .  A
O1488      C1493   1.282       .  A
O1489      C1492   1.260       .  A
O1490      C1502   1.263       .  A
O1491      C1504   1.301       .  A
C1492      O1497   1.246       .  A
C1492      C1707   1.472       .  S
C1493      C1609   1.496       .  S
O1495      C1498   1.247       .  A
O1496      C1498   1.258       .  A
C1498      C1595   1.458       .  S
O1499      C1504   1.282       .  A
O1500      C1502   1.280       .  A
C1501      O1503   1.277       .  A
C1501      C1564   1.481       .  S
C1502      C1578   1.498       .  S
C1504      C1721   1.497       .  S
Fe1505     O1511   2.071       .  S
Fe1505     O1510   2.041       .  S
Fe1505     O1516   1.944       .  S
Fe1506     O1509   2.013       .  S
Fe1506     O1513   2.154       .  S
Fe1506     O1517   2.030   1_556  S
Fe1507     O1525   2.131       .  S
Fe1507     O1512   2.015       .  S
Fe1507     O1519   2.035       .  S
Fe1507     O1508   2.165       .  S
Fe1507     O1516   1.913       .  S
O1508      C1515   1.300       .  A
O1510      C1515   1.280       .  A
O1511      C1514   1.260       .  A
O1512      C1524   1.260       .  A
O1513      C1526   1.296       .  A
C1514      O1519   1.252       .  A
C1514      C2054   1.470       .  S
C1515      C1651   1.493       .  S
O1517      C1520   1.250   1_554  A
O1518      C1520   1.262       .  A
C1520      C1634   1.472       .  S
O1521      C1526   1.279       .  A
O1522      C1524   1.281       .  A
C1523      O1525   1.284       .  A
C1524      C1581   1.487       .  S
C1526      C2068   1.488       .  S
Fe1527     O1543   2.056       .  S
Fe1527     O1533   2.061       .  S
Fe1527     O1540   2.071       .  S
Fe1527     O1532   2.059       .  S
Fe1527     O1538   1.938       .  S
Fe1528     O1531   2.025       .  S
Fe1528     O1535   2.162       .  S
Fe1528     O1539   2.023       .  S
Fe1528     O1544   2.101       .  S
Fe1528     O1538   1.909       .  S
Fe1529     O1547   2.117       .  S
Fe1529     O1534   2.021       .  S
Fe1529     O1541   2.034       .  S
Fe1529     O1530   2.156       .  S
Fe1529     O1538   1.916       .  S
O1530      C1537   1.299       .  A
O1531      C1545   1.262       .  A
O1532      C1537   1.283       .  A
O1533      C1536   1.259       .  A
O1534      C1546   1.261       .  A
O1535      C1548   1.300       .  A
C1536      O1541   1.252       .  A
C1536      C1945   1.467       .  S
C1537      C1749   1.498       .  S
O1539      C1542   1.246       .  A
O1540      C1542   1.257       .  A
C1542      C1732   1.477       .  S
O1543      C1548   1.283       .  A
O1544      C1546   1.275       .  A
C1545      O1547   1.281       .  A
C1545      C1553   1.493       .  S
C1546      C1567   1.483       .  S
C1548      C1956   1.499       .  S
C1549      C1550   1.393   1_554  A
C1549      C1554   1.406   1_554  A
C1549      H1556   1.084       .  S
C1550      C1551   1.419       .  A
C1551      C1552   1.406       .  A
C1551      N1558   1.433       .  S
C1552      C1553   1.399       .  A
C1552      H1557   1.084       .  S
C1553      C1554   1.428       .  A
C1554      N1555   1.438       .  S
N1555      H1559   1.045       .  S
N1555      H1560   1.046   1_556  S
N1558      H1562   1.045       .  S
C1563      C1564   1.413       .  A
C1563      C1568   1.401       .  A
C1563      H1570   1.085       .  S
C1564      C1565   1.403       .  A
C1565      C1566   1.400       .  A
C1565      N1572   1.432       .  S
C1566      C1567   1.417       .  A
C1566      H1571   1.085       .  S
C1567      C1568   1.412       .  A
C1568      N1569   1.438       .  S
N1569      H1573   1.046       .  S
N1569      H1574   1.040       .  S
N1572      H1575   1.045       .  S
N1572      H1576   1.045       .  S
C1577      C1578   1.416       .  A
C1577      C1582   1.403       .  A
C1577      H1584   1.084       .  S
C1578      C1579   1.409       .  A
C1579      C1580   1.405       .  A
C1579      N1586   1.432       .  S
C1580      C1581   1.416       .  A
C1580      H1585   1.085       .  S
C1581      C1582   1.412       .  A
C1582      N1583   1.438       .  S
N1583      H1587   1.045       .  S
N1583      H1588   1.041       .  S
N1586      H1589   1.045       .  S
N1586      H1590   1.045       .  S
C1591      C1592   1.400       .  A
C1591      C1596   1.397       .  A
C1591      H1598   1.084       .  S
C1592      C1593   1.416       .  A
C1593      C1594   1.398       .  A
C1593      N1600   1.439       .  S
C1594      C1595   1.396       .  A
C1594      H1599   1.084       .  S
C1595      C1596   1.413       .  A
C1596      N1597   1.439       .  S
N1597      H1601   1.046       .  S
N1597      H1602   1.045       .  S
N1600      H1603   1.046       .  S
N1600      H1604   1.046       .  S
C1605      C1606   1.410       .  A
C1605      C1610   1.407       .  A
C1605      H1612   1.084       .  S
C1606      C1607   1.413       .  A
C1607      C1608   1.415       .  A
C1607      N1614   1.438       .  S
C1608      C1609   1.410       .  A
C1608      H1613   1.084       .  S
C1609      C1610   1.412       .  A
C1610      N1611   1.432       .  S
N1611      H1615   1.045       .  S
N1611      H1616   1.045       .  S
N1614      H1617   1.046       .  S
N1614      H1618   1.045       .  S
C1619      C1620   1.401       .  A
C1619      C1624   1.414       .  A
C1620      C1621   1.415       .  A
C1621      C1622   1.394       .  A
C1621      N1628   1.433       .  S
C1622      C1623   1.398       .  A
C1622      H1627   1.085       .  S
C1623      C1624   1.416       .  A
N1625      H1629   1.045   1_554  S
N1625      H1630   1.045       .  S
N1628      H1631   1.046       .  S
N1628      H1632   1.046       .  S
C1633      C1634   1.403       .  A
C1633      C1638   1.392       .  A
C1633      H1640   1.084       .  S
C1634      C1635   1.416       .  A
C1635      C1636   1.404       .  A
C1635      N1642   1.438       .  S
C1636      C1637   1.399       .  A
C1636      H1641   1.084       .  S
C1637      C1638   1.406       .  A
C1638      N1639   1.434       .  S
N1639      H1643   1.046       .  S
N1639      H1644   1.046       .  S
N1642      H1645   1.046   1_556  S
N1642      H1646   1.046       .  S
C1647      C1648   1.403       .  A
C1647      C1652   1.408       .  A
C1647      H1654   1.084       .  S
C1648      C1649   1.426       .  A
C1649      C1650   1.410       .  A
C1649      N1656   1.433       .  S
C1650      C1651   1.402       .  A
C1650      H1655   1.084       .  S
C1651      C1652   1.414       .  A
C1652      N1653   1.433       .  S
N1653      H1657   1.046       .  S
N1653      H1658   1.046       .  S
N1656      H1659   1.044       .  S
N1656      H1660   1.046       .  S
C1661      C1662   1.407       .  A
C1661      C1666   1.394       .  A
C1661      H1668   1.083       .  S
C1662      C1663   1.414       .  A
C1663      C1664   1.412       .  A
C1663      N1670   1.437       .  S
C1664      C1665   1.411       .  A
C1664      H1669   1.082       .  S
C1665      C1666   1.407       .  A
C1666      N1667   1.433       .  S
N1667      H1671   1.044       .  S
N1667      H1672   1.045       .  S
N1670      H1673   1.044       .  S
N1670      H1674   1.045       .  S
C1675      C1676   1.410       .  A
C1675      C1680   1.413       .  A
C1675      H1682   1.081       .  S
C1676      C1677   1.410       .  A
C1677      C1678   1.393       .  A
C1677      N1684   1.440       .  S
C1678      C1679   1.406       .  A
C1678      H1683   1.085       .  S
C1679      C1680   1.417       .  A
C1680      N1681   1.438       .  S
N1681      H1685   1.046       .  S
N1681      H1686   1.042       .  S
N1684      H1687   1.045       .  S
N1684      H1688   1.046       .  S
C1689      C1690   1.406       .  A
C1689      C1694   1.420   1_565  A
C1689      H1696   1.083       .  S
C1690      C1691   1.415       .  A
C1691      C1692   1.393   1_565  A
C1691      N1698   1.432       .  S
C1692      C1693   1.396       .  A
C1692      H1697   1.085       .  S
C1693      C1694   1.416       .  A
C1694      N1695   1.436       .  S
N1695      H1699   1.046   1_545  S
N1695      H1700   1.045       .  S
N1698      H1701   1.046       .  S
N1698      H1702   1.046       .  S
C1703      C1704   1.399       .  A
C1703      C1708   1.396       .  A
C1703      H1710   1.084       .  S
C1704      C1705   1.405       .  A
C1705      C1706   1.393       .  A
C1705      N1712   1.433       .  S
C1706      C1707   1.403       .  A
C1706      H1711   1.084       .  S
C1707      C1708   1.421       .  A
C1708      N1709   1.433       .  S
N1709      H1713   1.044       .  S
N1709      H1714   1.046       .  S
N1712      H1716   1.046       .  S
C1717      C1718   1.406       .  A
C1717      C1722   1.416       .  A
C1717      H1724   1.083       .  S
C1718      C1719   1.420       .  A
C1719      C1720   1.414       .  A
C1719      N1726   1.433       .  S
C1720      C1721   1.402       .  A
C1720      H1725   1.084       .  S
C1721      C1722   1.418       .  A
C1722      N1723   1.438       .  S
N1723      H1727   1.046       .  S
N1723      H1728   1.045       .  S
N1726      H1729   1.046       .  S
N1726      H1730   1.046       .  S
C1731      C1732   1.411       .  A
C1731      H1738   1.083       .  S
C1732      C1733   1.415       .  A
C1733      N1740   1.433       .  S
C1734      C1735   1.407       .  A
C1734      H1739   1.084       .  S
C1735      C1736   1.406       .  A
C1736      N1737   1.438       .  S
N1737      H1742   1.046       .  S
N1740      H1743   1.045       .  S
C1745      C1746   1.411       .  A
C1745      C1750   1.416       .  A
C1745      H1752   1.084       .  S
C1746      C1747   1.412       .  A
C1747      C1748   1.415       .  A
C1747      N1754   1.438       .  S
C1748      C1749   1.410       .  A
C1748      H1753   1.084       .  S
C1749      C1750   1.411       .  A
C1750      N1751   1.437       .  S
N1751      H1755   1.046       .  S
N1751      H1756   1.045       .  S
N1754      H1757   1.046       .  S
N1754      H1758   1.046       .  S
C1759      C1760   1.398       .  A
C1759      C1764   1.392       .  A
C1759      H1766   1.085       .  S
C1760      C1761   1.420       .  A
C1761      C1762   1.424   1_545  A
C1761      N1768   1.437   1_545  S
C1762      C1763   1.408   1_565  A
C1762      H1767   1.083       .  S
C1763      C1764   1.415       .  A
C1764      N1765   1.433       .  S
N1765      H1769   1.046       .  S
N1765      H1770   1.046       .  S
N1768      H1771   1.043   1_565  S
N1768      H1772   1.045       .  S
C1773      C1774   1.410       .  A
C1773      C1778   1.410       .  A
C1773      H1780   1.083   1_565  S
C1774      C1775   1.410       .  A
C1776      H1781   1.084       .  S
C1777      C1778   1.414       .  A
C1778      N1779   1.437       .  S
N1779      H1783   1.046       .  S
N1779      H1784   1.043       .  S
N1782      H1785   1.044       .  S
N1782      H1786   1.046       .  S
C1787      C1788   1.405       .  A
C1787      C1792   1.401       .  A
C1787      H1794   1.084       .  S
C1788      C1789   1.408       .  A
C1789      C1790   1.413       .  A
C1789      N1796   1.438       .  S
C1790      C1791   1.412       .  A
C1790      H1795   1.084       .  S
C1791      C1792   1.416       .  A
C1792      N1793   1.433       .  S
N1793      H1797   1.045       .  S
N1793      H1798   1.045       .  S
N1796      H1799   1.046       .  S
N1796      H1800   1.045       .  S
C1801      C1802   1.403       .  A
C1801      C1806   1.389       .  A
C1801      H1808   1.084       .  S
C1802      C1803   1.415       .  A
C1803      C1804   1.404       .  A
C1803      N1810   1.438       .  S
C1804      C1805   1.401       .  A
C1804      H1809   1.084       .  S
C1805      C1806   1.407       .  A
C1806      N1807   1.434       .  S
N1807      H1811   1.045       .  S
N1807      H1812   1.046       .  S
N1810      H1813   1.046       .  S
N1810      H1814   1.046       .  S
C1815      C1816   1.407       .  A
C1815      C1820   1.404       .  A
C1815      H1822   1.084       .  S
C1816      C1817   1.410       .  A
C1817      C1818   1.415       .  A
C1817      N1824   1.437       .  S
C1818      C1819   1.411       .  A
C1818      H1823   1.084       .  S
C1819      C1820   1.416       .  A
C1820      N1821   1.433       .  S
N1821      H1825   1.045       .  S
N1821      H1826   1.045       .  S
N1824      H1827   1.046       .  S
N1824      H1828   1.045       .  S
C1829      C1830   1.400       .  A
C1829      C1834   1.390       .  A
C1829      H1836   1.084       .  S
C1830      C1831   1.414       .  A
C1831      C1832   1.400       .  A
C1831      N1838   1.433       .  S
C1832      C1833   1.402       .  A
C1832      H1837   1.084       .  S
C1833      C1834   1.415       .  A
C1834      N1835   1.434       .  S
N1835      H1839   1.046       .  S
N1835      H1840   1.046       .  S
N1838      H1841   1.046       .  S
N1838      H1842   1.046       .  S
C1843      C1844   1.417       .  A
C1843      H1850   1.084       .  S
C1844      C1845   1.403       .  A
C1845      C1846   1.409       .  A
C1845      N1852   1.437       .  S
C1846      C1847   1.418       .  A
C1846      H1851   1.084       .  S
C1848      N1849   1.437       .  S
N1849      H1853   1.046       .  S
N1849      H1854   1.046       .  S
N1852      H1855   1.046       .  S
N1852      H1856   1.046       .  S
C1857      C1858   1.412       .  A
C1857      H1864   1.084       .  S
C1858      C1859   1.413   1_556  A
C1859      N1866   1.437       .  S
C1860      C1861   1.415       .  A
C1860      H1865   1.083       .  S
C1861      C1862   1.417       .  A
C1862      N1863   1.437       .  S
N1863      H1867   1.046       .  S
N1863      H1868   1.045       .  S
N1866      H1869   1.046   1_545  S
N1866      H1870   1.046       .  S
C1871      C1872   1.401       .  A
C1871      C1876   1.400       .  A
C1871      H1878   1.084       .  S
C1872      C1873   1.408       .  A
C1873      C1874   1.392       .  A
C1873      N1880   1.434       .  S
C1874      C1875   1.404       .  A
C1874      H1879   1.084       .  S
C1875      C1876   1.411       .  A
C1876      N1877   1.432       .  S
N1877      H1881   1.046       .  S
N1877      H1882   1.045       .  S
N1880      H1883   1.046       .  S
N1880      H1884   1.046       .  S
C1885      C1886   1.405       .  A
C1885      C1890   1.404       .  A
C1885      H1892   1.084       .  S
C1886      C1887   1.422       .  A
C1887      C1888   1.415       .  A
C1888      C1889   1.401       .  A
C1888      H1893   1.084       .  S
C1889      C1890   1.418       .  A
C1890      N1891   1.433       .  S
N1891      H1895   1.044       .  S
N1891      H1896   1.046       .  S
N1894      H1897   1.046       .  S
N1894      H1898   1.046       .  S
C1899      C1900   1.406       .  A
C1899      C1904   1.401       .  A
C1899      H1906   1.083       .  S
C1900      C1901   1.405       .  A
C1901      C1902   1.393       .  A
C1901      N1908   1.433       .  S
C1902      C1903   1.409       .  A
C1902      H1907   1.084       .  S
C1903      C1904   1.412       .  A
C1904      N1905   1.438       .  S
N1905      H1909   1.046       .  S
N1905      H1910   1.046       .  S
N1908      H1911   1.046       .  S
N1908      H1912   1.046       .  S
C1913      C1914   1.417       .  A
C1913      C1918   1.409       .  A
C1913      H1920   1.084       .  S
C1914      C1915   1.403       .  A
C1915      C1916   1.407       .  A
C1915      N1922   1.432       .  S
C1916      C1917   1.416       .  A
C1916      H1921   1.084       .  S
C1917      C1918   1.404       .  A
C1918      N1919   1.437       .  S
N1919      H1923   1.046       .  S
N1919      H1924   1.045       .  S
N1922      H1925   1.046       .  S
N1922      H1926   1.046       .  S
C1927      C1928   1.416       .  A
C1927      C1932   1.408       .  A
C1927      H1934   1.084       .  S
C1928      C1929   1.400       .  A
C1929      C1930   1.406   1_565  A
C1929      N1936   1.432   1_565  S
C1930      C1931   1.416       .  A
C1930      H1935   1.084       .  S
C1931      C1932   1.404   1_545  A
C1932      N1933   1.437       .  S
N1933      H1937   1.046       .  S
N1933      H1938   1.045       .  S
N1936      H1939   1.046       .  S
N1936      H1940   1.045       .  S
C1941      C1942   1.410       .  A
C1941      C1946   1.397       .  A
C1941      H1948   1.083       .  S
C1942      C1943   1.413       .  A
C1943      C1944   1.403       .  A
C1943      N1950   1.438       .  S
C1944      C1945   1.404       .  A
C1944      H1949   1.084       .  S
C1945      C1946   1.405       .  A
C1946      N1947   1.439       .  S
N1947      H1951   1.045       .  S
N1947      H1952   1.046       .  S
N1950      H1953   1.046       .  S
N1950      H1954   1.046       .  S
C1955      C1956   1.409       .  A
C1955      C1960   1.416       .  A
C1955      H1962   1.084       .  S
C1957      C1958   1.411       .  A
C1957      N1964   1.432       .  S
C1958      C1959   1.412       .  A
C1958      H1963   1.084       .  S
C1960      N1961   1.437       .  S
N1961      H1965   1.046       .  S
N1964      H1967   1.046       .  S
N1964      H1968   1.045       .  S
C1969      C1970   1.400       .  A
C1969      C1974   1.396       .  A
C1969      H1976   1.084       .  S
C1971      C1972   1.391       .  A
C1971      N1978   1.434       .  S
C1972      C1973   1.398       .  A
C1972      H1977   1.084       .  S
C1974      N1975   1.433       .  S
N1975      H1979   1.046       .  S
N1975      H1980   1.046       .  S
N1978      H1982   1.046   1_556  S
C1983      C1984   1.399       .  A
C1983      C1988   1.409       .  A
C1983      H1990   1.084       .  S
C1984      C1985   1.421       .  A
C1985      C1986   1.412       .  A
C1985      N1992   1.439       .  S
C1986      C1987   1.408       .  A
C1986      H1991   1.083       .  S
C1987      C1988   1.422       .  A
C1988      N1989   1.433       .  S
N1989      H1993   1.046       .  S
N1989      H1994   1.046       .  S
N1992      H1995   1.043       .  S
N1992      H1996   1.046       .  S
C1997      H2004   1.083   1_554  S
C1998      C1999   1.411       .  A
C1999      C2000   1.401       .  A
C1999      N2006   1.439       .  S
C2000      C2001   1.405       .  A
C2000      H2005   1.084       .  S
C2001      C2002   1.411       .  A
N2003      H2007   1.046   1_554  S
N2003      H2008   1.046   1_554  S
N2006      H2009   1.045       .  S
N2006      H2010   1.046       .  S
C2011      C2012   1.403       .  A
C2011      C2016   1.391       .  A
C2011      H2018   1.083       .  S
C2012      C2013   1.415       .  A
C2013      C2014   1.403       .  A
C2013      N2020   1.438       .  S
C2014      C2015   1.401       .  A
C2014      H2019   1.084       .  S
C2015      C2016   1.410       .  A
C2016      N2017   1.440       .  S
N2017      H2021   1.046       .  S
N2017      H2022   1.046       .  S
N2020      H2023   1.046       .  S
N2020      H2024   1.046       .  S
C2025      C2026   1.410       .  A
C2025      C2030   1.415       .  A
C2025      H2032   1.084       .  S
C2026      C2027   1.408       .  A
C2027      C2028   1.409       .  A
C2027      N2034   1.438       .  S
C2028      C2029   1.411       .  A
C2028      H2033   1.084       .  S
C2029      C2030   1.412       .  A
C2030      N2031   1.437       .  S
N2031      H2035   1.046       .  S
N2031      H2036   1.045       .  S
N2034      H2037   1.046       .  S
N2034      H2038   1.046       .  S
C2039      C2040   1.407       .  A
C2039      C2044   1.395       .  A
C2039      H2046   1.084       .  S
C2040      C2041   1.407       .  A
C2041      C2042   1.417       .  A
C2041      N2048   1.436   1_655  S
C2042      C2043   1.411       .  A
C2042      H2047   1.083       .  S
C2043      C2044   1.406       .  A
C2044      N2045   1.433       .  S
N2045      H2049   1.046       .  S
N2045      H2050   1.045       .  S
N2048      H2051   1.046       .  S
N2048      H2052   1.046       .  S
C2053      C2054   1.404       .  A
C2053      C2058   1.393       .  A
C2053      H2060   1.084       .  S
C2054      C2055   1.410       .  A
C2055      C2056   1.394       .  A
C2055      N2062   1.433       .  S
C2056      C2057   1.409       .  A
C2056      H2061   1.084       .  S
C2057      C2058   1.416       .  A
C2058      N2059   1.433       .  S
N2059      H2063   1.045       .  S
N2059      H2064   1.045       .  S
N2062      H2065   1.046       .  S
N2062      H2066   1.044       .  S
C2067      C2068   1.401       .  A
C2067      C2072   1.408       .  A
C2067      H2074   1.084       .  S
C2068      C2069   1.412       .  A
C2069      C2070   1.408       .  A
C2069      N2076   1.433       .  S
C2070      C2071   1.405       .  A
C2070      H2075   1.084       .  S
C2071      C2072   1.425       .  A
C2072      N2073   1.433       .  S
N2073      H2077   1.044       .  S
N2073      H2078   1.045       .  S
N2076      H2080   1.046       .  S
C2081      C2082   1.402       .  A
C2081      C2086   1.413   1_455  A
C2081      H2088   1.083       .  S
C2082      C2083   1.415   1_455  A
C2083      C2084   1.393       .  A
C2083      N2090   1.433   1_655  S
C2084      C2085   1.394       .  A
C2084      H2089   1.085       .  S
C2085      C2086   1.414       .  A
C2086      N2087   1.436       .  S
N2087      H2091   1.045       .  S
N2087      H2092   1.045       .  S
N2090      H2093   1.046       .  S
N2090      H2094   1.046   1_455  S
C2095      C2096   1.404       .  A
C2095      C2100   1.405       .  A
C2095      H2102   1.084       .  S
C2096      C2097   1.419       .  A
C2097      C2098   1.413       .  A
C2097      N2104   1.438       .  S
C2098      C2099   1.402       .  A
C2098      H2103   1.084       .  S
C2099      C2100   1.420       .  A
C2100      N2101   1.439       .  S
N2101      H2105   1.045       .  S
N2104      H2107   1.046       .  S
N2104      H2108   1.046       .  S
C2109      C2110   1.402       .  A
C2109      C2114   1.396       .  A
C2109      H2116   1.083       .  S
C2110      C2111   1.415       .  A
C2111      C2112   1.401       .  A
C2111      N2118   1.438       .  S
C2112      C2113   1.402       .  A
C2112      H2117   1.084       .  S
C2113      C2114   1.416       .  A
C2114      N2115   1.439       .  S
N2115      H2119   1.046       .  S
N2115      H2120   1.046       .  S
N2118      H2121   1.046       .  S
N2118      H2122   1.046       .  S
C2123      C2124   1.406       .  A
C2123      C2128   1.415       .  A
C2123      H2130   1.081       .  S
C2124      C2125   1.409       .  A
C2125      C2126   1.405       .  A
C2125      N2132   1.433       .  S
C2126      C2127   1.408       .  A
C2126      H2131   1.084       .  S
C2127      C2128   1.426       .  A
C2128      N2129   1.439       .  S
N2129      H2133   1.046       .  S
N2129      H2134   1.041       .  S
N2132      H2135   1.046       .  S
N2132      H2136   1.046       .  S
C2137      C2138   1.404       .  A
C2137      C2142   1.394       .  A
C2137      H2144   1.084       .  S
C2138      C2139   1.414       .  A
C2139      C2140   1.392       .  A
C2139      N2146   1.434       .  S
C2140      C2141   1.408       .  A
C2140      H2145   1.084       .  S
C2141      C2142   1.419       .  A
C2142      N2143   1.432       .  S
N2143      H2147   1.045       .  S
N2143      H2148   1.045       .  S
N2146      H2150   1.044       .  S
C2151      C2152   1.417       .  A
C2151      C2156   1.402   1_556  A
C2151      H2158   1.084       .  S
C2152      C2153   1.410       .  A
C2153      C2154   1.405       .  A
C2153      N2160   1.432       .  S
C2154      C2155   1.414       .  A
C2154      H2159   1.084       .  S
C2155      C2156   1.406   1_556  A
N2157      H2161   1.045       .  S
N2157      H2162   1.046       .  S
N2160      H2163   1.046       .  S
N2160      H2164   1.045       .  S
C2165      C2166   1.401       .  A
C2165      C2170   1.413       .  A
C2165      H2172   1.084       .  S
C2166      C2167   1.415       .  A
C2167      C2168   1.413       .  A
C2167      N2174   1.438       .  S
C2168      C2169   1.406       .  A
C2168      H2173   1.083       .  S
C2169      C2170   1.420       .  A
C2170      N2171   1.432       .  S
N2171      H2175   1.046       .  S
N2171      H2176   1.046       .  S
N2174      H2177   1.046       .  S
N2174      H2178   1.045       .  S
C2179      C2180   1.405       .  A
C2179      C2184   1.391   1_556  A
C2179      H2186   1.084       .  S
C2181      C2182   1.400       .  A
C2181      N2188   1.438       .  S
C2182      C2183   1.405       .  A
C2182      H2187   1.083       .  S
C2184      N2185   1.434       .  S
N2185      H2189   1.046       .  S
N2188      H2191   1.045       .  S
N2188      H2192   1.046       .  S
C2193      C2194   1.406       .  A
C2193      C2198   1.403   1_556  A
C2193      H2200   1.084       .  S
C2195      C2196   1.413       .  A
C2195      N2202   1.437       .  S
C2196      C2197   1.413       .  A
C2196      H2201   1.083       .  S
C2198      N2199   1.432   1_554  S
N2199      H2203   1.045   1_556  S
N2199      H2204   1.046       .  S
N2202      H2205   1.046       .  S
N2202      H2206   1.045       .  S
C2207      C2208   1.403       .  A
C2207      C2212   1.395       .  A
C2207      H2214   1.083       .  S
C2208      C2209   1.413       .  A
C2209      C2210   1.397       .  A
C2209      N2216   1.433       .  S
C2210      C2211   1.400       .  A
C2210      H2215   1.084       .  S
C2211      C2212   1.414       .  A
C2212      N2213   1.440       .  S
N2213      H2217   1.046       .  S
N2213      H2218   1.046       .  S
N2216      H2219   1.046       .  S
N2216      H2220   1.046       .  S
C2221      C2222   1.419       .  A
C2221      C2226   1.409       .  A
C2221      H2228   1.082       .  S
C2222      C2223   1.409       .  A
C2223      C2224   1.405   1_655  A
C2223      N2230   1.432   1_655  S
C2224      C2225   1.416       .  A
C2224      H2229   1.084       .  S
C2225      C2226   1.402   1_455  A
C2226      N2227   1.437       .  S
N2227      H2231   1.045       .  S
N2227      H2232   1.046       .  S
N2230      H2233   1.045   1_455  S
N2230      H2234   1.045   1_455  S
C2235      C2236   1.394       .  A
C2235      C2240   1.403       .  A
C2235      H2242   1.084       .  S
C2236      C2237   1.423       .  A
C2237      C2238   1.408       .  A
C2237      N2244   1.437       .  S
C2238      C2239   1.396       .  A
C2238      H2243   1.083       .  S
C2239      C2240   1.424       .  A
C2240      N2241   1.434       .  S
N2241      H2245   1.046       .  S
N2241      H2246   1.046       .  S
N2244      H2247   1.045       .  S
N2244      H2248   1.046       .  S
C2249      C2250   1.411       .  A
C2249      C2254   1.413       .  A
C2249      H2256   1.084       .  S
C2250      C2251   1.409       .  A
C2251      C2252   1.415       .  A
C2251      N2258   1.431       .  S
C2252      C2253   1.412       .  A
C2252      H2257   1.084       .  S
C2253      C2254   1.411       .  A
C2254      N2255   1.437       .  S
N2255      H2259   1.046       .  S
N2255      H2260   1.045       .  S
N2258      H2261   1.045       .  S
N2258      H2262   1.046       .  S
C2263      C2264   1.403       .  A
C2263      C2268   1.392       .  A
C2263      H2270   1.084       .  S
C2264      C2265   1.408       .  A
C2265      C2266   1.393       .  A
C2265      N2272   1.433       .  S
C2266      C2267   1.410       .  A
C2266      H2271   1.084       .  S
C2267      C2268   1.417       .  A
N2269      H2273   1.045       .  S
N2269      H2274   1.046       .  S
N2272      H2275   1.046       .  S
N2272      H2276   1.044       .  S
C2277      C2278   1.415       .  A
C2277      C2282   1.404       .  A
C2277      H2284   1.083       .  S
C2278      C2279   1.420       .  A
C2279      C2280   1.417       .  A
C2279      N2286   1.437       .  S
C2280      C2281   1.405       .  A
C2280      H2285   1.084       .  S
C2281      C2282   1.407       .  A
C2282      N2283   1.433       .  S
N2283      H2287   1.046       .  S
N2283      H2288   1.045       .  S
N2286      H2289   1.046       .  S
N2286      H2290   1.046       .  S
C2291      C2292   1.408       .  A
C2291      C2296   1.402       .  A
C2291      H2298   1.083       .  S
C2292      C2293   1.408       .  A
C2293      C2294   1.395       .  A
C2293      N2300   1.433       .  S
C2294      C2295   1.407       .  A
C2294      H2299   1.084       .  S
C2295      C2296   1.411       .  A
C2296      N2297   1.438       .  S
N2297      H2301   1.046       .  S
N2297      H2302   1.046       .  S
N2300      H2303   1.046       .  S
N2300      H2304   1.046       .  S
