geometry optimzed in LAMMPS
_audit_creation_date              2020-12-01 
_audit_creation_method            'lammps2cif' 
_symmetry_space_group_name_H-M    'P1' 
_symmetry_Int_Tables_number       1 
_symmetry_cell_setting            triclinic 
loop_ 
_symmetry_equiv_pos_as_xyz 
  x,y,z 
_cell_length_a                    90.91908531 
_cell_length_b                    92.03744081283104 
_cell_length_c                    31.219513530199627 
_cell_angle_alpha                 89.67313904594747 
_cell_angle_beta                  88.7055100549634 
_cell_angle_gamma                 120.0294414012472 
loop_ 
_atom_site_label 
_atom_site_type_symbol 
_atom_site_fract_x 
_atom_site_fract_y 
_atom_site_fract_z 
_atom_site_charge 
C1          C  0.56128152  0.55063701  0.03072293     0.29700
C2          C  0.54953345  0.56297262  0.96629653     0.29700
C3          C  0.57368191  0.56077918  0.99391796    -0.06500
C4          C  0.54616392  0.53668770  0.00484541    -0.07300
C5          C  0.55279707  0.56079360  0.04453731    -0.07200
C6          C  0.56838252  0.56763736  0.96271032    -0.06500
C7          C  0.54016857  0.54315991  0.97160665    -0.07300
C8          C  0.54817593  0.56818718  0.01306678    -0.07200
C9          C  0.58056211  0.57279757  0.92949987    -0.32500
N10         N  0.59200966  0.56791679  0.93833234     0.14000
C11         C  0.58774207  0.56043322  0.97741828    -0.32600
H12         H  0.59387954  0.55422470  0.99175430     0.15900
C13         C  0.52342355  0.53077445  0.96464949    -0.31500
N14         N  0.51873571  0.51705454  0.99062510     0.12700
C15         C  0.53219390  0.52096042  0.01640344    -0.31500
C16         C  0.54437652  0.57911118  0.03509973    -0.31800
N17         N  0.54483679  0.57715075  0.07843799     0.13200
H18         H  0.54318265  0.58909766  0.02073841     0.15800
C19         C  0.54919873  0.56516887  0.08380219    -0.31800
H20         H  0.55113840  0.56054616  0.11356256     0.15800
H21         H  0.53165420  0.51330576  0.04348854     0.15800
H22         H  0.58107215  0.57950989  0.90062561     0.15900
H23         H  0.51477378  0.53233720  0.94446159     0.15800
C24         C  0.56898707  0.00663750  0.99966045     0.29700
C25         C  0.55528267  0.98039327  0.05880277     0.29700
C26         C  0.56952584  0.01144314  0.04716549    -0.06500
C27         C  0.54936823  0.99414167  0.99591962    -0.07300
C28         C  0.57635573  0.99498512  0.99966290    -0.07200
C29         C  0.56241084  0.99821714  0.07667542    -0.06500
C30         C  0.54227201  0.98035900  0.02636290    -0.07300
C31         C  0.56975359  0.98205997  0.02958953    -0.07200
C32         C  0.56361286  0.00503211  0.11645930    -0.32500
N33         N  0.57301368  0.02205518  0.11325473     0.14000
C34         C  0.57531151  0.02589953  0.07038678    -0.32600
H35         H  0.58190492  0.03842173  0.05660045     0.15900
C36         C  0.52571935  0.97692594  0.03524030    -0.31500
N37         N  0.52208588  0.98754170  0.01305277     0.12700
C38         C  0.53655445  0.99809848  0.98985727    -0.31500
C39         C  0.57346036  0.97013053  0.01464237    -0.31800
N40         N  0.58173466  0.97532622  0.97637367     0.13200
H41         H  0.56903518  0.95777848  0.02835734     0.15800
C42         C  0.58350099  0.99040674  0.96674709    -0.31800
H43         H  0.58780820  0.99657817  0.93571810     0.15800
H44         H  0.53856702  0.00937657  0.97353083     0.15800
H45         H  0.55819881  0.99778350  0.14557113     0.15900
H46         H  0.51747779  0.96786915  0.05925359     0.15800
In47       In  0.59060907  0.92454761  0.17228509     1.36900
C48         C  0.56694835  0.93289398  0.15125801     0.77300
O49         O  0.60178533  0.94657485  0.21799235    -0.61200
O50         O  0.61443227  0.94903713  0.15860017    -0.52100
C51         C  0.59023477  0.90098734  0.22637861     0.69900
O52         O  0.60324844  0.91218894  0.20677863    -0.46900
C53         C  0.59762863  0.91491461  0.09839402     0.74600
O54         O  0.57244048  0.92615856  0.12542428    -0.58800
O55         O  0.60851043  0.92742205  0.11858032    -0.48900
O56         O  0.57148838  0.93295405  0.18925705    -0.55200
C57         C  0.61391963  0.95606655  0.19264394     0.84800
O58         O  0.57709804  0.90200170  0.21968044    -0.57100
O59         O  0.58308752  0.90710092  0.11681002    -0.60400
In60       In  0.61182764  0.91870981  0.84264407     1.36900
C61         C  0.59635650  0.93346486  0.87550383     0.77300
O62         O  0.59785394  0.90166798  0.89834109    -0.61200
O63         O  0.62476681  0.91694390  0.90131854    -0.52100
C64         C  0.60683026  0.89472939  0.78740898     0.69900
O65         O  0.59571074  0.89875752  0.79649014    -0.46900
C66         C  0.63034723  0.94890233  0.80677138     0.74600
O67         O  0.61108588  0.93678461  0.88481677    -0.58800
O68         O  0.63687172  0.94265032  0.83104778    -0.48900
O69         O  0.58842969  0.92131820  0.85020306    -0.55200
C70         C  0.61077611  0.90770371  0.92146574     0.84800
O71         O  0.62066561  0.90315203  0.80662023    -0.57100
O72         O  0.61580249  0.93833190  0.79384940    -0.60400
In73       In  0.59515188  0.66612426  0.17604188     1.36900
C74         C  0.56778279  0.63541522  0.17264952     0.77300
O75         O  0.58245931  0.66702453  0.11627664    -0.61200
O76         O  0.60908972  0.67636175  0.11316193    -0.52100
C77         C  0.59825973  0.69105027  0.22790711     0.69900
O78         O  0.58979656  0.67572017  0.23811477    -0.46900
C79         C  0.61843860  0.65672110  0.18514119     0.74600
O80         O  0.58069318  0.63855827  0.19349231    -0.58800
O81         O  0.61786243  0.66448482  0.15249900    -0.48900
O82         O  0.56776868  0.64835378  0.15917610    -0.55200
C83         C  0.59581151  0.67267325  0.09292719     0.84800
O84         O  0.60503117  0.69368037  0.19107732    -0.57100
O85         O  0.60826599  0.65540330  0.21509965    -0.60400
In86       In  0.58580266  0.65071663  0.83115839     1.36900
C87         C  0.56356229  0.61774753  0.85497177     0.77300
O88         O  0.60025291  0.64387693  0.78264637    -0.61200
O89         O  0.61260433  0.65654575  0.83870594    -0.52100
C90         C  0.58289853  0.67346158  0.77864395     0.69900
O91         O  0.57401829  0.65771466  0.77438776    -0.46900
C92         C  0.58997832  0.66236082  0.91067633     0.74600
O93         O  0.56116211  0.62977732  0.86382815    -0.58800
O94         O  0.57628534  0.65710430  0.89101690    -0.48900
O95         O  0.57603352  0.62221207  0.82928657    -0.55200
C96         C  0.61344365  0.64958247  0.80478328     0.84800
O97         O  0.59294761  0.67721109  0.80891715    -0.57100
O98         O  0.60171648  0.66211423  0.88888681    -0.60400
C99         C  0.59392869  0.84256225  0.66425383     0.79900
N100        N  0.59174809  0.82735956  0.67711854    -0.78400
C101        C  0.58813829  0.81514088  0.64790746     0.82400
N102        N  0.58741378  0.81851535  0.60579690    -0.78300
C103        C  0.59014957  0.83378874  0.59215617     0.82500
N104        N  0.59334058  0.84571782  0.62177335    -0.80100
C105        C  0.58217888  0.72491126  0.66438720     0.79900
N106        N  0.58052266  0.73791930  0.68083587    -0.78400
C107        C  0.58041094  0.74969183  0.65386498     0.82400
N108        N  0.58270211  0.74878646  0.61139806    -0.78300
C109        C  0.58580956  0.73705954  0.59468733     0.82500
N110        N  0.58526033  0.72492004  0.62113315    -0.80100
C111        C  0.59606049  0.85234714  0.33683603     0.79900
N112        N  0.59395007  0.85298175  0.38035152    -0.78400
C113        C  0.59435907  0.84139260  0.40703224     0.82400
N114        N  0.59722006  0.82952787  0.39007890    -0.78300
C115        C  0.59898418  0.82837333  0.34743939     0.82500
N116        N  0.59837206  0.83978573  0.32049582    -0.80100
C117        C  0.60195756  0.74313638  0.34087106     0.79900
N118        N  0.60222677  0.75734328  0.32651509    -0.78400
C119        C  0.60092694  0.76791317  0.35479310     0.82400
N120        N  0.59945403  0.76426893  0.39746701    -0.78300
C121        C  0.59949368  0.75037869  0.41240756     0.82500
N122        N  0.60053425  0.73983324  0.38389346    -0.80100
In123      In  0.32161015  0.38345265  0.16835420     1.36900
C124        C  0.35297808  0.40784856  0.14056038     0.77300
O125        O  0.33123424  0.37170323  0.21632124    -0.61200
O126        O  0.31288268  0.35561056  0.17294297    -0.52100
C127        C  0.30053949  0.38839522  0.22182879     0.69900
O128        O  0.29563363  0.37761077  0.19296434    -0.46900
C129        C  0.31006681  0.37854912  0.08806171     0.74600
O130        O  0.34003983  0.40949606  0.14112410    -0.58800
O131        O  0.31485524  0.36932057  0.10582391    -0.48900
O132        O  0.35052229  0.39467473  0.15952818    -0.55200
C133        C  0.32267972  0.35691833  0.20262287     0.84800
O134        O  0.31652154  0.39652650  0.22485776    -0.57100
O135        O  0.31062140  0.38977737  0.11195967    -0.60400
In136      In  0.30642014  0.37832301  0.82249094     1.36900
C137        C  0.33773139  0.40486004  0.82399563     0.77300
O138        O  0.30426693  0.38978659  0.88382763    -0.61200
O139        O  0.29530863  0.36363973  0.88412566    -0.52100
C140        C  0.28402802  0.38064243  0.77187105     0.69900
O141        O  0.27951654  0.36884144  0.79889203    -0.46900
C142        C  0.31495979  0.35454646  0.80902880     0.74600
O143        O  0.33343309  0.39330495  0.79736222    -0.58800
O144        O  0.30880273  0.35628489  0.84372102    -0.48900
O145        O  0.32565154  0.40337143  0.84764571    -0.55200
C146        C  0.29883153  0.37645146  0.90593073     0.84800
O147        O  0.29974227  0.39063961  0.77031408    -0.57100
O148        O  0.31529874  0.36405725  0.77922365    -0.60400
C149        C  0.13336287  0.40055147  0.66008334     0.79900
N150        N  0.13125564  0.39880765  0.61667408    -0.78400
C151        C  0.14416152  0.40040870  0.59012847     0.82400
N152        N  0.15898558  0.40358611  0.60736672    -0.78300
C153        C  0.16097838  0.40442073  0.65022930     0.82500
N154        N  0.14809994  0.40272516  0.67661901    -0.80100
C155        C  0.24027264  0.39183828  0.66050859     0.79900
N156        N  0.24326203  0.39260391  0.61732341    -0.78400
C157        C  0.23484564  0.39722886  0.59002008     0.82400
N158        N  0.22344825  0.40117200  0.60682611    -0.78300
C159        C  0.21997536  0.40014724  0.64957444     0.82500
N160        N  0.22812694  0.39505517  0.67657019    -0.80100
C161        C  0.13125125  0.37833643  0.34096450     0.79900
N162        N  0.13066434  0.38289198  0.38221913    -0.78400
C163        C  0.14357658  0.38645501  0.40903028     0.82400
N164        N  0.15695252  0.38492516  0.39464873    -0.78300
C165        C  0.15748713  0.37983238  0.35413418     0.82500
N166        N  0.14464906  0.37659285  0.32726109    -0.80100
C167        C  0.24990396  0.39103095  0.33598094     0.79900
N168        N  0.23420550  0.38652292  0.32043268    -0.78400
C169        C  0.22084023  0.38276818  0.34785277     0.82400
N170        N  0.22336173  0.38416471  0.39034229    -0.78300
C171        C  0.23893422  0.38983510  0.40641314     0.82500
N172        N  0.25221778  0.39299127  0.37927220    -0.80100
In173      In  0.05607492  0.36883276  0.16649318     1.36900
C174        C  0.04681310  0.39130667  0.15061749     0.77300
O175        O  0.07219799  0.38107484  0.10775064    -0.61200
O176        O  0.05250494  0.35577277  0.10270098    -0.52100
C177        C  0.07971110  0.37055682  0.22041835     0.69900
O178        O  0.07520826  0.38143134  0.21798170    -0.46900
C179        C  0.02384027  0.34653084  0.18885389     0.74600
O180        O  0.04106909  0.38145064  0.18246850    -0.58800
O181        O  0.03159083  0.34423076  0.15776839    -0.48900
O182        O  0.06013045  0.39263610  0.13373603    -0.55200
C183        C  0.06385324  0.36891655  0.08333151     0.84800
O184        O  0.07210489  0.35862377  0.19498464    -0.57100
O185        O  0.03345232  0.35868688  0.21189033    -0.60400
In186      In  0.05398107  0.39143411  0.83048310     1.36900
C187        C  0.04354499  0.41350935  0.84988402     0.77300
O188        O  0.02990907  0.37995576  0.79247864    -0.61200
O189        O  0.03107359  0.36584129  0.84451030    -0.52100
C190        C  0.07871498  0.39648516  0.77156894     0.69900
O191        O  0.08033078  0.40735694  0.79827930    -0.46900
C192        C  0.06299951  0.38322063  0.90379952     0.74600
O193        O  0.05092309  0.40904230  0.87599405    -0.58800
O194        O  0.05314575  0.37240077  0.87793609    -0.48900
O195        O  0.04358521  0.40858047  0.81229235    -0.55200
C196        C  0.02215782  0.36673951  0.81533309     0.84800
O197        O  0.06434030  0.38345970  0.77386964    -0.57100
O198        O  0.06900354  0.39818867  0.89062856    -0.60400
C199        C  0.96915469  0.40980795  0.01259208     0.29700
C200        C  0.99482799  0.42255621  0.95072901     0.29700
C201        C  0.96369403  0.40776850  0.96532153    -0.06500
C202        C  0.98128182  0.42942133  0.01340506    -0.07300
C203        C  0.98190279  0.40360704  0.01403407    -0.07200
C204        C  0.97667058  0.41467167  0.93495497    -0.06500
C205        C  0.99489472  0.43616446  0.98124408    -0.07300
C206        C  0.99483527  0.41015122  0.98346754    -0.07200
C207        C  0.96959284  0.41177376  0.89529167    -0.32500
N208        N  0.95245104  0.40177350  0.89971617     0.14000
C209        C  0.94878567  0.40019521  0.94272674    -0.32600
H210        H  0.93623023  0.39286159  0.95700505     0.15900
C211        C  0.99836497  0.45251184  0.97264136    -0.31500
N212        N  0.98819676  0.45617897  0.99765409     0.12700
C213        C  0.97744364  0.44207764  0.02084904    -0.31500
C214        C  0.00851981  0.40963921  0.00069775    -0.31800
N215        N  0.00413852  0.40258701  0.04042860     0.13200
H216        H  0.02118017  0.41528059  0.98635047     0.15800
C217        C  0.98815792  0.39937363  0.04906613    -0.31800
H218        H  0.98221652  0.39597618  0.08057548     0.15800
H219        H  0.96661182  0.44063169  0.03953656     0.15800
H220        H  0.97681616  0.41541532  0.86532436     0.15900
H221        H  0.00663178  0.46060660  0.94689962     0.15800
In222      In  0.92297830  0.32374251  0.16373915     1.36900
C223        C  0.93101885  0.35461223  0.13253571     0.77300
O224        O  0.94560031  0.33305603  0.20764163    -0.61200
O225        O  0.94471975  0.31931880  0.15266397    -0.52100
C226        C  0.89852780  0.30316572  0.22227734     0.69900
O227        O  0.90684858  0.29882677  0.19824390    -0.46900
C228        C  0.91419124  0.30854741  0.08808227     0.74600
O229        O  0.91771508  0.34116288  0.12425466    -0.58800
O230        O  0.92720376  0.31103292  0.10760670    -0.48900
O231        O  0.93926175  0.35283081  0.16206135    -0.55200
C232        C  0.95297543  0.32711804  0.18479836     0.84800
O233        O  0.90306693  0.31851377  0.21776036    -0.57100
O234        O  0.90510261  0.31309814  0.10863658    -0.60400
In235      In  0.91572986  0.30900120  0.82559648     1.36900
C236        C  0.91960694  0.33959947  0.82494482     0.77300
O237        O  0.90061894  0.30524297  0.88656069    -0.61200
O238        O  0.91741694  0.29550529  0.88392114    -0.52100
C239        C  0.89229759  0.28633742  0.77284892     0.69900
O240        O  0.90155416  0.28291722  0.79543130    -0.46900
C241        C  0.94944319  0.32108477  0.81417341     0.74600
O242        O  0.92501155  0.33426380  0.79495806    -0.58800
O243        O  0.94192286  0.31736615  0.85025567    -0.48900
O244        O  0.91045429  0.32862322  0.85280649    -0.55200
C245        C  0.90764278  0.29854635  0.90680823     0.84800
O246        O  0.89524088  0.30109138  0.77743145    -0.57100
O247        O  0.93954030  0.31723382  0.78321077    -0.60400
In248      In  0.66531662  0.06052820  0.18466965     1.36900
C249        C  0.63443801  0.05712837  0.18682440     0.77300
O250        O  0.67288518  0.07516927  0.12181329    -0.61200
O251        O  0.67101490  0.05140016  0.12322198    -0.52100
C252        C  0.68986370  0.08571987  0.22940892     0.69900
O253        O  0.68046595  0.08750452  0.20377942    -0.46900
C254        C  0.65530199  0.02840099  0.20188314     0.74600
O255        O  0.64425207  0.06215244  0.15439306    -0.58800
O256        O  0.66829703  0.03778256  0.17862008    -0.48900
O257        O  0.64087836  0.05506328  0.22002376    -0.55200
C258        C  0.67334809  0.06379447  0.10062739     0.84800
O259        O  0.68677181  0.07079013  0.23265552    -0.57100
O260        O  0.64883914  0.03609234  0.22069822    -0.60400
In261      In  0.65274870  0.04903065  0.83918810     1.36900
C262        C  0.62135728  0.04200051  0.86931402     0.77300
O263        O  0.64033150  0.02523713  0.80055902    -0.61200
O264        O  0.65933832  0.02837175  0.84344748    -0.52100
C265        C  0.67445974  0.07284994  0.77929732     0.69900
O266        O  0.65843925  0.06590785  0.77834776    -0.46900
C267        C  0.66523628  0.05679015  0.91793709     0.74600
O268        O  0.63454814  0.05624462  0.87140437    -0.58800
O269        O  0.66344525  0.04414159  0.89803242    -0.48900
O270        O  0.62361057  0.03204055  0.84631372    -0.55200
C271        C  0.64837619  0.01883823  0.81735689     0.84800
O272        O  0.67911174  0.06731612  0.80989802    -0.57100
O273        O  0.66137648  0.06600854  0.89651295    -0.60400
C274        C  0.83925371  0.23959962  0.66129664     0.79900
N275        N  0.84057778  0.24437873  0.61936791    -0.78400
C276        C  0.82846199  0.23465801  0.59146443     0.82400
N277        N  0.81447457  0.22037870  0.60631390    -0.78300
C278        C  0.81273253  0.21542815  0.64810042     0.82500
N279        N  0.82537440  0.22492185  0.67559150    -0.80100
C280        C  0.72451463  0.12706765  0.66304284     0.79900
N281        N  0.73940059  0.13991478  0.67845395    -0.78400
C282        C  0.75035591  0.15299705  0.65200801     0.82400
N283        N  0.74634518  0.15314887  0.61071136    -0.78300
C284        C  0.73184179  0.14070165  0.59449011     0.82500
N285        N  0.72088182  0.12760871  0.62079467    -0.80100
C286        C  0.84462941  0.25332273  0.33664571     0.79900
N287        N  0.83055959  0.23996290  0.31993054    -0.78400
C288        C  0.81802528  0.22849559  0.34672426     0.82400
N289        N  0.81978624  0.23021254  0.38931094    -0.78300
C290        C  0.83404622  0.24235174  0.40663055     0.82500
N291        N  0.84634790  0.25446405  0.38031370    -0.80100
C292        C  0.73377040  0.13952885  0.34026170     0.79900
N293        N  0.72853542  0.13742883  0.38226419    -0.78400
C294        C  0.73685368  0.14992319  0.41063790     0.82400
N295        N  0.75074791  0.16442116  0.39650299    -0.78300
C296        C  0.75637099  0.16655493  0.35498783     0.82500
N297        N  0.74771743  0.15413538  0.32669737    -0.80100
C298        C  0.96919120  0.54701776  0.01699626     0.29700
C299        C  0.99706853  0.56082598  0.96092656     0.29700
C300        C  0.98248698  0.56567604  0.02348376    -0.06500
C301        C  0.98039496  0.53846618  0.01688843    -0.07300
C302        C  0.96541264  0.54700421  0.96862846    -0.07200
C303        C  0.99635828  0.57265907  0.99488627    -0.06500
C304        C  0.99497445  0.54584615  0.98889463    -0.07300
C305        C  0.97932541  0.55257284  0.94062047    -0.07200
C306        C  0.00934626  0.58638176  0.01516587    -0.32500
N307        N  0.00409536  0.58786500  0.05495437     0.14000
C308        C  0.98774242  0.57541067  0.05995964    -0.32600
H309        H  0.98082516  0.57267144  0.09000516     0.15900
C310        C  0.99910172  0.53344515  0.98101985    -0.31500
N311        N  0.98815618  0.51910736  0.00324557     0.12700
C312        C  0.97636610  0.52187939  0.02353020    -0.31500
C313        C  0.97311191  0.54945135  0.89964925    -0.31800
N314        N  0.95661262  0.54555741  0.90088916     0.13200
H315        H  0.98041627  0.55071112  0.87068989     0.15800
C316        C  0.95201778  0.54445891  0.94310867    -0.31800
H317        H  0.94071505  0.54438562  0.95411614     0.15800
H318        H  0.96499153  0.51222437  0.03988836     0.15800
H319        H  0.02220420  0.59412618  0.00305318     0.15900
H320        H  0.00851587  0.53437095  0.95762551     0.15800
In321      In  0.65772178  0.59339482  0.13677743     1.36900
C322        C  0.62554998  0.57158421  0.11148033     0.77300
O323        O  0.64228591  0.60024101  0.18105960    -0.61200
O324        O  0.66163712  0.61938292  0.14166030    -0.52100
C325        C  0.67797465  0.58917126  0.19304673     0.69900
O326        O  0.67347181  0.60000009  0.19683610    -0.46900
C327        C  0.67654331  0.60471706  0.06398856     0.74600
O328        O  0.63587098  0.58514583  0.09257856    -0.58800
O329        O  0.67507218  0.61419403  0.09054005    -0.48900
O330        O  0.63203507  0.56798570  0.14236142    -0.55200
C331        C  0.64934695  0.61532911  0.16785619     0.84800
O332        O  0.67137716  0.57975905  0.16152574    -0.57100
O333        O  0.66917392  0.58951655  0.07607873    -0.60400
In334      In  0.68089874  0.61482602  0.80766746     1.36900
C335        C  0.65210906  0.58859802  0.83738911     0.77300
O336        O  0.69321633  0.61005378  0.86261784    -0.61200
O337        O  0.68883304  0.63056076  0.86698039    -0.52100
C338        C  0.70159906  0.61360092  0.74726322     0.69900
O339        O  0.68672128  0.60181634  0.75507489    -0.46900
C340        C  0.66662324  0.63301217  0.78749126     0.74600
O341        O  0.66630849  0.59233917  0.85195356    -0.58800
O342        O  0.67948993  0.63858982  0.81073703    -0.48900
O343        O  0.65299377  0.59623574  0.80305817    -0.55200
C344        C  0.69295933  0.62105564  0.88617429     0.84800
O345        O  0.70599495  0.62631966  0.76996167    -0.57100
O346        O  0.66290363  0.61937863  0.76973569    -0.60400
C347        C  0.85602730  0.60240260  0.61427562     0.79900
N348        N  0.84156807  0.60165666  0.63101472    -0.78400
C349        C  0.82883505  0.59920655  0.60453313     0.82400
N350        N  0.83090936  0.59823403  0.56204244    -0.78300
C351        C  0.84545454  0.60013140  0.54454150     0.82500
N352        N  0.85794999  0.60179060  0.57074516    -0.80100
C353        C  0.74410275  0.60440393  0.62159755     0.79900
N354        N  0.75875818  0.60473985  0.63217069    -0.78400
C355        C  0.76685185  0.59982750  0.60357442     0.82400
N356        N  0.76013508  0.59446448  0.56451667    -0.78300
C357        C  0.74575345  0.59431091  0.55319571     0.82500
N358        N  0.73794792  0.59952839  0.58160887    -0.80100
C359        C  0.84481288  0.59016616  0.29028677     0.79900
N360        N  0.84820542  0.59140765  0.33281145    -0.78400
C361        C  0.83806106  0.59334508  0.36192429     0.82400
N362        N  0.82417491  0.59368845  0.34833515    -0.78300
C363        C  0.82020879  0.59218110  0.30642232     0.82500
N364        N  0.83071172  0.59059212  0.27686493    -0.80100
C365        C  0.72915409  0.58778562  0.30225298     0.79900
N366        N  0.72611456  0.58670986  0.34551557    -0.78400
C367        C  0.73726316  0.58619397  0.37291167     0.82400
N368        N  0.75173562  0.58718639  0.35702396    -0.78300
C369        C  0.75545484  0.58890952  0.31442324     0.82500
N370        N  0.74403553  0.58904513  0.28677676    -0.80100
In371      In  0.92332770  0.58702434  0.13933476     1.36900
C372        C  0.92917230  0.56147299  0.12204332     0.77300
O373        O  0.90997966  0.57935767  0.07676940    -0.61200
O374        O  0.93232732  0.60309800  0.07899325    -0.52100
C375        C  0.89777353  0.58767716  0.18552927     0.69900
O376        O  0.90216440  0.57679315  0.19166040    -0.46900
C377        C  0.95207022  0.60945289  0.17609562     0.74600
O378        O  0.91461122  0.55994201  0.11981982    -0.58800
O379        O  0.94710388  0.61221917  0.14108473    -0.48900
O380        O  0.93995340  0.57512694  0.13786081    -0.55200
C381        C  0.92057398  0.59246506  0.05639127     0.84800
O382        O  0.90650425  0.59810234  0.15625240    -0.57100
O383        O  0.94178188  0.59538645  0.19352203    -0.60400
In384      In  0.92709364  0.60147383  0.78826060     1.36900
C385        C  0.92966326  0.57395485  0.79280187     0.77300
O386        O  0.95423466  0.61344862  0.76182681    -0.61200
O387        O  0.94882935  0.62566979  0.81152450    -0.52100
C388        C  0.90641207  0.60452690  0.73128157     0.69900
O389        O  0.91508767  0.59767610  0.72281008    -0.46900
C390        C  0.91956513  0.59935032  0.87188463     0.74600
O391        O  0.91641459  0.57407562  0.80523580    -0.58800
O392        O  0.92969010  0.61301324  0.85277184    -0.48900
O393        O  0.94026558  0.58702760  0.77232062    -0.55200
C394        C  0.96012689  0.62473794  0.78962526     0.84800
O395        O  0.90878910  0.61038702  0.76833955    -0.57100
O396        O  0.91185701  0.58712703  0.84720436    -0.60400
C397        C  0.41693683  0.98285050  0.98099264     0.29700
C398        C  0.43140595  0.00899299  0.03795196     0.29700
C399        C  0.40531991  0.98313492  0.01664892    -0.06500
C400        C  0.43186211  0.98356525  0.00752501    -0.07300
C401        C  0.42610362  0.00062962  0.96176337    -0.07200
C402        C  0.41236154  0.99629478  0.04482435    -0.06500
C403        C  0.43927667  0.99714840  0.03724344    -0.07300
C404        C  0.43316741  0.01383436  0.98957567    -0.07200
C405        C  0.40245198  0.99048479  0.08230886    -0.32500
N406        N  0.38983046  0.97447281  0.07773508     0.14000
C407        C  0.39171600  0.96976207  0.03804121    -0.32600
H408        H  0.38455117  0.95708261  0.02646852     0.15900
C409        C  0.45591255  0.00067350  0.04274993    -0.31500
N410        N  0.45909053  0.99005916  0.01932255     0.12700
C411        C  0.44488487  0.98020689  0.99660378    -0.31500
C412        C  0.44118794  0.02821036  0.96374153    -0.31800
N413        N  0.43822514  0.02411878  0.92151006     0.13200
H414        H  0.44860227  0.04069517  0.97560579     0.15800
C415        C  0.42989799  0.00706814  0.92070718    -0.31800
H416        H  0.42571656  0.99946447  0.89253266     0.15800
H417        H  0.44433509  0.97185414  0.97164474     0.15800
H418        H  0.40517741  0.99681607  0.11250492     0.15900
H419        H  0.46548285  0.01119908  0.06006479     0.15800
In420      In  0.30405498  0.92022621  0.21232346     1.36900
C421        C  0.33652450  0.93112873  0.19452515     0.77300
O422        O  0.30011134  0.90401491  0.15598282    -0.61200
O423        O  0.28997510  0.92036817  0.15391120    -0.52100
C424        C  0.28369198  0.89654608  0.27150441     0.69900
O425        O  0.29909013  0.90093617  0.26483626    -0.46900
C426        C  0.31251098  0.95242548  0.22130316     0.74600
O427        O  0.33171757  0.93571893  0.22724696    -0.58800
O428        O  0.30515583  0.94403586  0.18889756    -0.48900
O429        O  0.32496161  0.91829122  0.17721832    -0.55200
C430        C  0.29333498  0.91043798  0.13369444     0.84800
O431        O  0.27884409  0.90463318  0.24870591    -0.57100
O432        O  0.31284987  0.94352938  0.25185456    -0.60400
In433      In  0.32401344  0.92105882  0.87664568     1.36900
C434        C  0.35731099  0.93182937  0.89333181     0.77300
O435        O  0.33539529  0.94354043  0.83118471    -0.61200
O436        O  0.32184561  0.94406016  0.88672177    -0.52100
C437        C  0.30165951  0.89715701  0.82201729     0.69900
O438        O  0.30385422  0.91166479  0.82594368    -0.46900
C439        C  0.30755230  0.91401139  0.95291555     0.74600
O440        O  0.35213482  0.93229616  0.85647084    -0.58800
O441        O  0.30927531  0.92567539  0.92821064    -0.48900
O442        O  0.34532903  0.92337770  0.91987956    -0.55200
C443        C  0.33059740  0.95187255  0.85368692     0.84800
O444        O  0.31153599  0.89477494  0.84510828    -0.57100
O445        O  0.31356551  0.90531772  0.93753101    -0.60400
In446      In  0.05542734  0.66192436  0.21511937     1.36900
C447        C  0.04678960  0.63189414  0.18519474     0.77300
O448        O  0.02994022  0.64610275  0.24850302    -0.61200
O449        O  0.03196886  0.66303732  0.19940078    -0.52100
C450        C  0.07605180  0.68166251  0.27802231     0.69900
O451        O  0.07520018  0.66806451  0.26710049    -0.46900
C452        C  0.06593608  0.67538132  0.13758435     0.74600
O453        O  0.04116706  0.63366388  0.22091245    -0.58800
O454        O  0.05403331  0.67602725  0.15753066    -0.48900
O455        O  0.06016796  0.64475688  0.17195342    -0.55200
C456        C  0.02219012  0.65075482  0.22378637     0.84800
O457        O  0.06601062  0.68467631  0.25784911    -0.57100
O458        O  0.07409298  0.67058381  0.16036796    -0.60400
In459      In  0.05841717  0.65451272  0.87592613     1.36900
C460        C  0.04907487  0.62166387  0.88612510     0.77300
O461        O  0.07350456  0.66163036  0.93499295    -0.61200
O462        O  0.05169550  0.66453166  0.93427017    -0.52100
C463        C  0.08549600  0.67833653  0.83045456     0.69900
O464        O  0.07576197  0.68136195  0.85305345    -0.46900
C465        C  0.02941853  0.65015295  0.84213602     0.74600
O466        O  0.04914718  0.62844560  0.85094965    -0.58800
O467        O  0.03297174  0.65338765  0.88101464    -0.48900
O468        O  0.05594075  0.63209919  0.91532962    -0.55200
C469        C  0.06391582  0.66563223  0.95539750     0.84800
O470        O  0.08165690  0.66313522  0.83161093    -0.57100
O471        O  0.04114093  0.65000423  0.82022175    -0.60400
C472        C  0.13667930  0.73215281  0.72072849     0.79900
N473        N  0.13387068  0.73007480  0.67795108    -0.78400
C474        C  0.14483427  0.74158695  0.64881805     0.82400
N475        N  0.15866942  0.75566628  0.66260049    -0.78300
C476        C  0.16143346  0.75836506  0.70520116     0.82500
N477        N  0.15051486  0.74649978  0.73428996    -0.80100
C478        C  0.24839587  0.84636855  0.71482095     0.79900
N479        N  0.24864093  0.84949881  0.67169541    -0.78400
C480        C  0.23559893  0.83861585  0.64698704     0.82400
N481        N  0.22214851  0.82512851  0.66582138    -0.78300
C482        C  0.22162535  0.82166355  0.70805544     0.82500
N483        N  0.23497344  0.83207947  0.73270985    -0.80100
C484        C  0.12581292  0.72891134  0.39689163     0.79900
N485        N  0.13964842  0.74298331  0.37960103    -0.78400
C486        C  0.15256966  0.75339123  0.40525948     0.82400
N487        N  0.15138697  0.74988334  0.44761299    -0.78300
C488        C  0.13756808  0.73654944  0.46566789     0.82500
N489        N  0.12467415  0.72590508  0.44024910    -0.80100
C490        C  0.23660989  0.84353289  0.39079847     0.79900
N491        N  0.22239353  0.82949766  0.37751405    -0.78400
C492        C  0.21136327  0.81782306  0.40667374     0.82400
N493        N  0.21467779  0.82022755  0.44907397    -0.78300
C494        C  0.22888537  0.83397906  0.46276698     0.82500
N495        N  0.23978594  0.84561288  0.43348359    -0.80100
C496        C  0.40601151  0.42656164  0.01258281     0.29700
C497        C  0.41893560  0.41432964  0.95074778     0.29700
C498        C  0.40441925  0.43064057  0.96558369    -0.06500
C499        C  0.42594592  0.43404064  0.01373910    -0.07300
C500        C  0.39956880  0.40774249  0.01439402    -0.07200
C501        C  0.41127274  0.42485664  0.93518752    -0.06500
C502        C  0.43276438  0.42768093  0.98112159    -0.07300
C503        C  0.40634902  0.40184115  0.98406373    -0.07200
C504        C  0.40963072  0.43064939  0.89599900    -0.32500
N505        N  0.39980017  0.43790379  0.90044969     0.14000
C506        C  0.39790350  0.43914705  0.94360017    -0.32600
H507        H  0.39096653  0.44445840  0.95877698     0.15900
C508        C  0.44920126  0.44097086  0.97161238    -0.31500
N509        N  0.45321970  0.45436380  0.99737378     0.12700
C510        C  0.43894165  0.45039339  0.02157726    -0.31500
C511        C  0.40634677  0.38813926  0.00252971    -0.31800
N512        N  0.39927697  0.38512258  0.04237036     0.13200
H513        H  0.41240039  0.38157431  0.98911597     0.15800
C514        C  0.39508242  0.39703762  0.05000245    -0.31800
H515        H  0.38988214  0.39841127  0.08010468     0.15800
H516        H  0.43739858  0.45937429  0.04054277     0.15800
H517        H  0.41380296  0.42786273  0.86609764     0.15900
H518        H  0.45722698  0.44120046  0.94518840     0.15800
In519      In  0.36118479  0.29582723  0.18049417     1.36900
C520        C  0.37868658  0.32610541  0.14424167     0.77300
O521        O  0.37480719  0.29209556  0.12510785    -0.61200
O522        O  0.34813930  0.28204639  0.12060801    -0.52100
C523        C  0.36656268  0.27511897  0.23234262     0.69900
O524        O  0.37689474  0.29073369  0.22794418    -0.46900
C525        C  0.34137549  0.30617606  0.21776742     0.74600
O526        O  0.38515357  0.32166116  0.17370514    -0.58800
O527        O  0.33547885  0.29389977  0.19246579    -0.48900
O528        O  0.36370281  0.31541233  0.13532563    -0.55200
C529        C  0.36206634  0.28570106  0.10136099     0.84800
O530        O  0.35325135  0.27019066  0.21099341    -0.57100
O531        O  0.35619691  0.31063349  0.22981306    -0.60400
In532      In  0.38183211  0.31881487  0.84552756     1.36900
C533        C  0.40226133  0.35157649  0.86912805     0.77300
O534        O  0.37187236  0.33069406  0.79830086    -0.61200
O535        O  0.35536018  0.31464866  0.84756924    -0.52100
C536        C  0.38519520  0.29737461  0.78952388     0.69900
O537        O  0.39772691  0.31061382  0.80326002    -0.46900
C538        C  0.37580622  0.30251928  0.92139834     0.74600
O539        O  0.40672538  0.34515770  0.83928425    -0.58800
O540        O  0.36433856  0.30183366  0.89824424    -0.48900
O541        O  0.38836745  0.34114930  0.88720479    -0.55200
C542        C  0.35747280  0.32461828  0.81715225     0.84800
O543        O  0.37125542  0.29567403  0.80302838    -0.57100
O544        O  0.39052284  0.31088477  0.90441182    -0.60400
In545      In  0.39012857  0.05273962  0.18358099     1.36900
C546        C  0.41476548  0.04549904  0.15772645     0.77300
O547        O  0.37621152  0.02971706  0.22722770    -0.61200
O548        O  0.36294221  0.03228278  0.17577738    -0.52100
C549        C  0.39277963  0.07683153  0.24073961     0.69900
O550        O  0.38664136  0.07467118  0.20415067    -0.46900
C551        C  0.38590108  0.06039735  0.10320432     0.74600
O552        O  0.40095121  0.03489523  0.17581816    -0.58800
O553        O  0.37381011  0.04939103  0.12630881    -0.48900
O554        O  0.41698075  0.06016914  0.15828207    -0.55200
C555        C  0.36263158  0.02317768  0.20656521     0.84800
O556        O  0.39781753  0.06659530  0.24894758    -0.57100
O557        O  0.39980928  0.06790446  0.12219432    -0.60400
In558      In  0.38246568  0.05673821  0.83687453     1.36900
C559        C  0.41004552  0.05402272  0.83114800     0.77300
O560        O  0.39505781  0.06832944  0.89790706    -0.61200
O561        O  0.36821990  0.05687711  0.89725349    -0.52100
C562        C  0.38418611  0.08137823  0.78581297     0.69900
O563        O  0.37149696  0.07260369  0.81041275    -0.46900
C564        C  0.35995452  0.02360849  0.83360701     0.74600
O565        O  0.39789393  0.04642265  0.80613355    -0.58800
O566        O  0.36498164  0.03175108  0.86741923    -0.48900
O567        O  0.40866676  0.06422966  0.85526673    -0.55200
C568        C  0.38144908  0.06368861  0.91930624     0.84800
O569        O  0.39512784  0.07692455  0.78662092    -0.57100
O570        O  0.36557440  0.03265608  0.79991230    -0.60400
C571        C  0.38709691  0.24609828  0.67934781     0.79900
N572        N  0.39112436  0.23477863  0.69645603    -0.78400
C573        C  0.39125487  0.22274003  0.67122590     0.82400
N574        N  0.38758070  0.22223845  0.62939812    -0.78300
C575        C  0.38342354  0.23307395  0.61153938     0.82500
N576        N  0.38335184  0.24522152  0.63661047    -0.80100
C577        C  0.39279904  0.13747647  0.67944579     0.79900
N578        N  0.39378157  0.15194050  0.69365084    -0.78400
C579        C  0.39840255  0.16516541  0.66588390     0.82400
N580        N  0.40195082  0.16369778  0.62389686    -0.78300
C581        C  0.40028459  0.14905457  0.60916414     0.82500
N582        N  0.39569503  0.13610377  0.63717690    -0.80100
C583        C  0.37641542  0.23134163  0.35307734     0.79900
N584        N  0.37701692  0.21738001  0.34046501    -0.78400
C585        C  0.37807043  0.20695036  0.37017052     0.82400
N586        N  0.37790951  0.21029140  0.41249920    -0.78300
C587        C  0.37740949  0.22409712  0.42597777     0.82500
N588        N  0.37677972  0.23461444  0.39594037    -0.80100
C589        C  0.39454726  0.12831044  0.35775456     0.79900
N590        N  0.39174876  0.14066217  0.34163701    -0.78400
C591        C  0.39334944  0.15344332  0.36707311     0.82400
N592        N  0.39787775  0.15388125  0.40817625    -0.78300
C593        C  0.39994924  0.14154069  0.42546481     0.82500
N594        N  0.39810345  0.12863459  0.40034360    -0.80100
C595        C  0.36837534  0.17623440  0.36906588    -0.26600
C596        C  0.38093525  0.19278603  0.35773463    -0.14700
C597        C  0.39702614  0.19556497  0.34251366     0.35900
C598        C  0.40025742  0.18204126  0.34103516    -0.26100
C599        C  0.38792077  0.16569147  0.35427561    -0.15300
C600        C  0.37173737  0.16281297  0.36747736     0.37000
N601        N  0.35899142  0.14637894  0.38205110    -0.89600
H602        H  0.35612323  0.17384061  0.38152689     0.18100
H603        H  0.41294264  0.18459099  0.33224745     0.18100
N604        N  0.41075193  0.21202472  0.33076389    -0.88600
H605        H  0.34829755  0.14255423  0.36344712     0.35500
H606        H  0.35558582  0.14719641  0.41379517     0.40600
H607        H  0.42031798  0.21526350  0.35292857     0.40200
H608        H  0.40711595  0.22109523  0.33260325     0.35100
C609        C  0.39044553  0.13103917  0.54431049    -0.26600
C610        C  0.40187559  0.14651524  0.56249852    -0.14700
C611        C  0.41432771  0.15930210  0.53559772     0.35900
C612        C  0.41429995  0.15692780  0.49105899    -0.26100
C613        C  0.40221322  0.14182222  0.47256866    -0.15300
C614        C  0.39045635  0.12865197  0.49973544     0.37000
N615        N  0.37780384  0.11322477  0.48198422    -0.89600
H616        H  0.38088601  0.12097544  0.56452077     0.18100
H617        H  0.42345930  0.16717713  0.47058127     0.18100
N618        N  0.42709637  0.17466911  0.55338366    -0.88600
H619        H  0.36584983  0.11143652  0.49097921     0.35500
H620        H  0.37895280  0.10345973  0.49565479     0.40600
H621        H  0.42635741  0.18457250  0.53905533     0.40200
H622        H  0.43897564  0.17611183  0.54520615     0.35100
C623        C  0.38537146  0.24516374  0.53673243    -0.26600
C624        C  0.37946174  0.23117401  0.56465588    -0.14700
C625        C  0.37151848  0.21502734  0.54645485     0.35900
C626        C  0.37068997  0.21320516  0.50174450    -0.26100
C627        C  0.37734737  0.22712506  0.47346301    -0.15300
C628        C  0.38436670  0.24328048  0.49156182     0.37000
N629        N  0.39118137  0.25790206  0.46439920    -0.89600
H630        H  0.39153939  0.25766020  0.54979037     0.18100
H631        H  0.36483997  0.20064264  0.48911036     0.18100
N632        N  0.36421774  0.20026311  0.57341647    -0.88600
H633        H  0.40401461  0.26559240  0.47126628     0.35500
H634        H  0.38483489  0.26441625  0.47206959     0.40600
H635        H  0.37014745  0.19334679  0.56558163     0.40200
H636        H  0.35134766  0.19298968  0.56657867     0.35100
C637        C  0.38336399  0.19495353  0.70490659    -0.26600
C638        C  0.39594955  0.21025636  0.68627745    -0.14700
C639        C  0.41083763  0.21116952  0.66874358     0.35900
C640        C  0.41188648  0.19644373  0.66490188    -0.26100
C641        C  0.39857367  0.18079751  0.67966384    -0.15300
C642        C  0.38471614  0.18031292  0.70239585     0.37000
N643        N  0.37136898  0.16475300  0.72008416    -0.89600
H644        H  0.37179236  0.19399988  0.71819509     0.18100
H645        H  0.42280955  0.19704672  0.64845891     0.18100
N646        N  0.42432383  0.22693818  0.65197656    -0.88600
H647        H  0.36000257  0.16218176  0.70611308     0.35500
H648        H  0.37024352  0.16631261  0.75294041     0.40600
H649        H  0.43436314  0.22557413  0.63979506     0.40200
H650        H  0.42907685  0.23511967  0.67766414     0.35100
C651        C  0.40100663  0.11675944  0.70160075    -0.26600
C652        C  0.39070607  0.12386116  0.70930114    -0.14700
C653        C  0.37817319  0.11693883  0.74267491     0.35900
C654        C  0.37611930  0.10303104  0.76686418    -0.26100
C655        C  0.38645727  0.09588771  0.75892902    -0.15300
C656        C  0.39919597  0.10313738  0.72584412     0.37000
N657        N  0.41041672  0.09689449  0.71527923    -0.89600
H658        H  0.41070160  0.12189043  0.67620876     0.18100
H659        H  0.36639607  0.09782125  0.79213849     0.18100
N660        N  0.36700682  0.12335823  0.75177407    -0.88600
H661        H  0.40319338  0.08420457  0.70779009     0.35500
H662        H  0.41794642  0.09835220  0.74151383     0.40600
H663        H  0.36069132  0.12292564  0.72380720     0.40200
H664        H  0.37430710  0.13586365  0.76072961     0.35100
C665        C  0.39203575  0.08739330  0.31558272    -0.26600
C666        C  0.39373962  0.09017316  0.27083168    -0.14700
C667        C  0.39583020  0.10567977  0.25536632     0.35900
C668        C  0.39611146  0.11765104  0.28396143    -0.26100
C669        C  0.39413965  0.11485606  0.32867150    -0.15300
C670        C  0.39198982  0.09933635  0.34427756     0.37000
N671        N  0.38922837  0.09532042  0.38918373    -0.89600
H672        H  0.39023479  0.07563552  0.32845884     0.18100
H673        H  0.39796704  0.12937808  0.27074298     0.18100
N674        N  0.39811949  0.10991773  0.21057049    -0.88600
H675        H  0.39871204  0.09293846  0.39940664     0.35500
H676        H  0.37751963  0.08429574  0.39355416     0.40600
H677        H  0.38710789  0.10147441  0.19489261     0.40200
H678        H  0.40837006  0.10889979  0.19852746     0.35100
C679        C  0.36843150  0.05377521  0.03744210    -0.26600
C680        C  0.38414966  0.06350659  0.05704800    -0.14700
C681        C  0.39832962  0.07495978  0.03123769     0.35900
C682        C  0.39679482  0.07539792  0.98658185    -0.26100
C683        C  0.38136263  0.06498043  0.96677215    -0.15300
C684        C  0.36692279  0.05442662  0.99273655     0.37000
N685        N  0.35090850  0.04368791  0.97379209    -0.89600
H686        H  0.35736419  0.04506109  0.05662721     0.18100
H687        H  0.40792506  0.08364036  0.96693151     0.18100
N688        N  0.41443506  0.08574726  0.05007327    -0.88600
H689        H  0.34196251  0.04647917  0.98702360     0.35500
H690        H  0.34714663  0.03127282  0.98220080     0.40600
H691        H  0.41297243  0.09427553  0.06911977     0.40200
H692        H  0.42368240  0.09286128  0.02650327     0.35100
C693        C  0.37117605  0.27135755  0.74408679    -0.26600
C694        C  0.38625480  0.28457740  0.76075199    -0.14700
C695        C  0.40163846  0.28463234  0.75082049     0.35900
C696        C  0.40161299  0.27209049  0.72463656    -0.26100
C697        C  0.38659413  0.25920367  0.70733048    -0.15300
C698        C  0.37117820  0.25879074  0.71781229     0.37000
N699        N  0.35543459  0.24519082  0.70319918    -0.89600
H700        H  0.35919187  0.27073049  0.75176186     0.18100
H701        H  0.41352768  0.27247095  0.71759958     0.18100
N702        N  0.41751524  0.29705876  0.76740298    -0.88600
H703        H  0.34515526  0.24624729  0.71495236     0.35500
H704        H  0.35550108  0.24625335  0.66984889     0.40600
H705        H  0.42006465  0.30886699  0.75657076     0.40200
H706        H  0.41644917  0.29651801  0.80090247     0.35100
C707        C  0.38157102  0.27063509  0.29363390    -0.26600
C708        C  0.36974538  0.26370409  0.26091014    -0.14700
C709        C  0.36118080  0.24604266  0.25654662     0.35900
C710        C  0.36383156  0.23581289  0.28597856    -0.26100
C711        C  0.37486449  0.24272191  0.32048095    -0.15300
C712        C  0.38411550  0.26050958  0.32319705     0.37000
N713        N  0.39647802  0.26880458  0.35521816    -0.89600
H714        H  0.38867565  0.28413394  0.29710074     0.18100
H715        H  0.35688900  0.22232025  0.28229891     0.18100
N716        N  0.34995111  0.23839169  0.22186329    -0.88600
H717        H  0.39025386  0.26591489  0.38509466     0.35500
H718        H  0.40509958  0.26441194  0.35414369     0.40600
H719        H  0.33796657  0.22973443  0.23480264     0.40200
H720        H  0.35442833  0.23178751  0.20382170     0.35100
C721        C  0.38063313  0.29108674  0.03632984    -0.26600
C722        C  0.36418248  0.28532113  0.05384229    -0.14700
C723        C  0.35123251  0.28298890  0.02583981     0.35900
C724        C  0.35519974  0.28758054  0.98221299    -0.26100
C725        C  0.37201239  0.29497153  0.96564409    -0.15300
C726        C  0.38475444  0.29622861  0.99320174     0.37000
N727        N  0.40217825  0.30350162  0.97930187    -0.89600
H728        H  0.39081854  0.29301493  0.05711361     0.18100
H729        H  0.34512717  0.28624309  0.96180283     0.18100
N730        N  0.33421159  0.27689004  0.04180210    -0.88600
H731        H  0.40677700  0.31604180  0.97027046     0.35500
H732        H  0.40288699  0.29689101  0.95301453     0.40600
H733        H  0.32614430  0.26611433  0.02496998     0.40200
H734        H  0.33087344  0.28600207  0.03517008     0.35100
C735        C  0.43043892  0.39586723  0.91676760    -0.26600
C736        C  0.41913367  0.40227638  0.91534310    -0.14700
C737        C  0.40369142  0.39219548  0.89262528     0.35900
C738        C  0.40012918  0.37701997  0.87394202    -0.26100
C739        C  0.41043758  0.37001840  0.87901672    -0.15300
C740        C  0.42602974  0.37974773  0.89980383     0.37000
N741        N  0.43684531  0.37286685  0.90653946    -0.89600
H742        H  0.44176957  0.40240188  0.93540390     0.18100
H743        H  0.38799457  0.36968384  0.85877859     0.18100
N744        N  0.39011022  0.39586465  0.89320193    -0.88600
H745        H  0.43826301  0.37231287  0.93955597     0.35500
H746        H  0.44878131  0.38116992  0.89274264     0.40600
H747        H  0.37949175  0.38600243  0.90894117     0.40200
H748        H  0.38692263  0.39652546  0.86155332     0.35100
C749        C  0.39150241  0.35579395  0.05023263    -0.26600
C750        C  0.39637704  0.37116778  0.06967204    -0.14700
C751        C  0.39799753  0.37216788  0.11497358     0.35900
C752        C  0.39332690  0.35749237  0.13939253    -0.26100
C753        C  0.38746743  0.34201381  0.11945743    -0.15300
C754        C  0.38709810  0.34137263  0.07450103     0.37000
N755        N  0.38185491  0.32587828  0.05322424    -0.89600
H756        H  0.39041529  0.35476176  0.01576160     0.18100
H757        H  0.39360929  0.35806882  0.17404513     0.18100
N758        N  0.40456783  0.38770917  0.13709643    -0.88600
H759        H  0.39175845  0.32759753  0.03232014     0.35500
H760        H  0.37134331  0.32323547  0.03485489     0.40600
H761        H  0.39438559  0.38950009  0.14539984     0.40200
H762        H  0.41324482  0.39766494  0.11736931     0.35100
C763        C  0.16701664  0.78303258  0.37801717    -0.26600
C764        C  0.16807343  0.76883932  0.38976944    -0.14700
C765        C  0.18405584  0.77095559  0.39985377     0.35900
C766        C  0.19833519  0.78710815  0.40126602    -0.26100
C767        C  0.19706630  0.80143728  0.39321464    -0.15300
C768        C  0.18129035  0.79934651  0.37990355     0.37000
N769        N  0.17898300  0.81338290  0.37065406    -0.89600
H770        H  0.15472626  0.78159404  0.37118870     0.18100
H771        H  0.21027690  0.78850557  0.41158599     0.18100
N772        N  0.18554380  0.75669076  0.41171648    -0.88600
H773        H  0.19033308  0.82477238  0.37279449     0.35500
H774        H  0.17057112  0.81341855  0.39398086     0.40600
H775        H  0.19006294  0.75840129  0.44287676     0.40200
H776        H  0.19460570  0.75637602  0.39116026     0.35100
C777        C  0.23334884  0.82423195  0.57887356    -0.26600
C778        C  0.23667421  0.83907587  0.59936167    -0.14700
C779        C  0.23833022  0.85265818  0.57439222     0.35900
C780        C  0.23641830  0.85096149  0.52947718    -0.26100
C781        C  0.23263394  0.83587074  0.50924410    -0.15300
C782        C  0.23143782  0.82245926  0.53453536     0.37000
N783        N  0.22866739  0.80695793  0.51661467    -0.89600
H784        H  0.23200509  0.81369477  0.59780454     0.18100
H785        H  0.23717443  0.86119998  0.51040662     0.18100
N786        N  0.24080738  0.86762735  0.59487436    -0.88600
H787        H  0.23024513  0.80768015  0.48332916     0.35500
H788        H  0.21617828  0.79769269  0.52445698     0.40600
H789        H  0.24112570  0.87617902  0.57221742     0.40200
H790        H  0.25278141  0.87331903  0.60856021     0.35100
C791        C  0.12657225  0.73491027  0.58475152    -0.26600
C792        C  0.14209669  0.73842734  0.60238685    -0.14700
C793        C  0.15502427  0.73918646  0.57529744     0.35900
C794        C  0.15254334  0.73703379  0.53112945    -0.26100
C795        C  0.13742584  0.73442454  0.51286906    -0.15300
C796        C  0.12423773  0.73328358  0.54001726     0.37000
N797        N  0.10899509  0.73144270  0.52205170    -0.89600
H798        H  0.11660806  0.73432162  0.60567473     0.18100
H799        H  0.16284509  0.73811863  0.51061914     0.18100
N800        N  0.17075377  0.74219844  0.59256153    -0.88600
H801        H  0.10064006  0.73092989  0.54631757     0.35500
H802        H  0.11238174  0.74227993  0.50369649     0.40600
H803        H  0.18059347  0.75303849  0.57770712     0.40200
H804        H  0.17248188  0.73212489  0.58457102     0.35100
C805        C  0.19253002  0.77505766  0.71733697    -0.26600
C806        C  0.17660483  0.77405063  0.71873221    -0.14700
C807        C  0.17588154  0.78883342  0.72494456     0.35900
C808        C  0.19102851  0.80439793  0.72782850    -0.26100
C809        C  0.20701415  0.80555202  0.72374943    -0.15300
C810        C  0.20767306  0.79065949  0.71932881     0.37000
N811        N  0.22373774  0.79151817  0.71297115    -0.89600
H812        H  0.19326578  0.76383976  0.71149520     0.18100
H813        H  0.19030230  0.81578756  0.72932899     0.18100
N814        N  0.15983727  0.78824058  0.72522042    -0.88600
H815        H  0.22376004  0.78637438  0.68317940     0.35500
H816        H  0.22479147  0.78404305  0.73662447     0.40600
H817        H  0.16009586  0.79595757  0.70010354     0.40200
H818        H  0.15851145  0.79327203  0.75397676     0.35100
C819        C  0.11071497  0.70723835  0.82123437    -0.26600
C820        C  0.09972934  0.69151368  0.80373392    -0.14700
C821        C  0.10162597  0.68909031  0.75985616     0.35900
C822        C  0.11391135  0.70236423  0.73433718    -0.26100
C823        C  0.12471168  0.71834990  0.75115338    -0.15300
C824        C  0.12330201  0.72063903  0.79563784     0.37000
N825        N  0.13430728  0.73653304  0.81465782    -0.89600
H826        H  0.10930358  0.70913152  0.85496865     0.18100
H827        H  0.11478777  0.70008810  0.70062317     0.18100
N828        N  0.09070234  0.67349222  0.73975279    -0.88600
H829        H  0.13199937  0.73587955  0.84781147     0.35500
H830        H  0.13121294  0.74521559  0.80240197     0.40600
H831        H  0.09221039  0.66409115  0.75425657     0.40200
H832        H  0.07810007  0.67064553  0.74460083     0.35100
C833        C  0.10031664  0.71946895  0.35131443    -0.26600
C834        C  0.11266910  0.71637744  0.36826493    -0.14700
C835        C  0.11257515  0.70149900  0.35658435     0.35900
C836        C  0.10038211  0.69020869  0.32827604    -0.26100
C837        C  0.08811031  0.69337542  0.31057344    -0.15300
C838        C  0.08811645  0.70819564  0.32287449     0.37000
N839        N  0.07583831  0.71200433  0.30636552    -0.89600
H840        H  0.10018462  0.73078930  0.35998270     0.18100
H841        H  0.10077058  0.67904266  0.31938177     0.18100
N842        N  0.12505046  0.69778412  0.37215397    -0.88600
H843        H  0.06901296  0.71313006  0.33230507     0.35500
H844        H  0.08235912  0.72362600  0.29032559     0.40600
H845        H  0.12411360  0.69716312  0.40561000     0.40200
H846        H  0.13709121  0.70766445  0.36296242     0.35100
C847        C  0.07591911  0.66816451  0.07156350    -0.26600
C848        C  0.06812230  0.67657731  0.09018157    -0.14700
C849        C  0.06003991  0.68270915  0.06310491     0.35900
C850        C  0.05938999  0.67967370  0.01890367    -0.26100
C851        C  0.06638260  0.67038731  0.00105755    -0.15300
C852        C  0.07479724  0.66471312  0.02785486     0.37000
N853        N  0.08124705  0.65441293  0.01144772    -0.89600
H854        H  0.08188165  0.66301437  0.09149207     0.18100
H855        H  0.05292162  0.68416044  0.99861834     0.18100
N856        N  0.05221079  0.69181296  0.07935963    -0.88600
H857        H  0.07496080  0.64283543  0.02775727     0.35500
H858        H  0.09416697  0.66016264  0.01806341     0.40600
H859        H  0.06113497  0.70190260  0.09694840     0.40200
H860        H  0.04189445  0.68390152  0.09949279     0.35100
C861        C  0.28401767  0.86719944  0.79649131    -0.26600
C862        C  0.28835136  0.88419560  0.79348373    -0.14700
C863        C  0.27927365  0.88847782  0.76425152     0.35900
C864        C  0.26658774  0.87598016  0.73887891    -0.26100
C865        C  0.26218454  0.85905843  0.74228470    -0.15300
C866        C  0.27101025  0.85469462  0.77164011     0.37000
N867        N  0.26704705  0.83760250  0.77574693    -0.89600
H868        H  0.29060013  0.86351100  0.81870000     0.18100
H869        H  0.25984025  0.87945729  0.71663022     0.18100
N870        N  0.28278102  0.90550214  0.76048916    -0.88600
H871        H  0.26346682  0.83375737  0.80771549     0.35500
H872        H  0.27811117  0.83716159  0.76869290     0.40600
H873        H  0.29499980  0.91267615  0.74687254     0.40200
H874        H  0.27450728  0.90639460  0.73929625     0.35100
C875        C  0.33326775  0.97891987  0.87657498    -0.26600
C876        C  0.33562862  0.96968708  0.84422935    -0.14700
C877        C  0.34398382  0.97806178  0.80545563     0.35900
C878        C  0.35071880  0.99555545  0.80090841    -0.26100
C879        C  0.34948938  0.00494125  0.83474760    -0.15300
C880        C  0.34019537  0.99634170  0.87238377     0.37000
N881        N  0.33815267  0.00533214  0.90716766    -0.89600
H882        H  0.32671527  0.97275569  0.90640585     0.18100
H883        H  0.35778826  0.00191906  0.77177685     0.18100
N884        N  0.34605493  0.96897463  0.77101378    -0.88600
H885        H  0.34342090  0.00324910  0.93432657     0.35500
H886        H  0.32514496  0.00035062  0.91344397     0.40600
H887        H  0.35905654  0.97423451  0.76413515     0.40200
H888        H  0.34043002  0.97065136  0.74399778     0.35100
C889        C  0.26624636  0.86474728  0.36577160    -0.26600
C890        C  0.24864346  0.85660885  0.35930926    -0.14700
C891        C  0.24279815  0.86156786  0.32375423     0.35900
C892        C  0.25442945  0.87464818  0.29612064    -0.26100
C893        C  0.27205157  0.88280739  0.30233977    -0.15300
C894        C  0.27794549  0.87750845  0.33757969     0.37000
N895        N  0.29565525  0.88501699  0.34623941    -0.89600
H896        H  0.27099531  0.86106256  0.39283221     0.18100
H897        H  0.24958209  0.87835342  0.26932834     0.18100
N898        N  0.22497598  0.85369657  0.31622003    -0.88600
H899        H  0.30069841  0.89793817  0.34947188     0.35500
H900        H  0.30179112  0.88286910  0.32041275     0.40600
H901        H  0.22287789  0.84860219  0.28560520     0.40200
H902        H  0.22151699  0.86294972  0.31653772     0.35100
C903        C  0.29388596  0.92232762  0.06195918    -0.26600
C904        C  0.29219218  0.90868760  0.08641454    -0.14700
C905        C  0.29286444  0.89549198  0.06492588     0.35900
C906        C  0.29667208  0.89695359  0.02078027    -0.26100
C907        C  0.30012741  0.91142054  0.99722354    -0.15300
C908        C  0.29805023  0.92393037  0.01791940     0.37000
N909        N  0.30120381  0.93882371  0.99515353    -0.89600
H910        H  0.29340848  0.93256824  0.07764652     0.18100
H911        H  0.29779185  0.88703367  0.00527180     0.18100
N912        N  0.29006254  0.88058662  0.08697788    -0.88600
H913        H  0.31101787  0.94916714  0.01010164     0.35500
H914        H  0.29025110  0.93980455  0.99779404     0.40600
H915        H  0.27854129  0.87550694  0.10435989     0.40200
H916        H  0.29992083  0.88363008  0.10802357     0.35100
C917        C  0.33362220  0.97913133  0.25490939    -0.26600
C918        C  0.32239285  0.97121785  0.22135502    -0.14700
C919        C  0.32319620  0.98129307  0.18578188     0.35900
C920        C  0.33567904  0.99836312  0.18346201    -0.26100
C921        C  0.34793789  0.00585495  0.21509362    -0.15300
C922        C  0.34638454  0.99610300  0.25203549     0.37000
N923        N  0.35771379  0.00287471  0.28690170    -0.89600
H924        H  0.33324441  0.97182308  0.28267992     0.18100
H925        H  0.33634825  0.00557971  0.15518778     0.18100
N926        N  0.31194781  0.97457611  0.15071587    -0.88600
H927        H  0.35752796  0.01351116  0.29777527     0.35500
H928        H  0.36998670  0.00627918  0.27603240     0.40600
H929        H  0.29941920  0.96852260  0.16280454     0.40200
H930        H  0.31429254  0.96597132  0.13472250     0.35100
C931        C  0.40091691  0.95277851  0.94846865    -0.26600
C932        C  0.40460323  0.96964971  0.94867623    -0.14700
C933        C  0.39296625  0.97317625  0.92683029     0.35900
C934        C  0.37938737  0.96078228  0.90438825    -0.26100
C935        C  0.37502361  0.94399845  0.90687101    -0.15300
C936        C  0.38596829  0.93991831  0.92896580     0.37000
N937        N  0.38180978  0.92277200  0.93243390    -0.89600
H938        H  0.40878035  0.94931570  0.96645062     0.18100
H939        H  0.37085057  0.96411269  0.88905029     0.18100
N940        N  0.39356418  0.98897775  0.93118516    -0.88600
H941        H  0.38073807  0.91956619  0.96497270     0.35500
H942        H  0.39196758  0.92187341  0.91903475     0.40600
H943        H  0.38219297  0.98681714  0.94600465     0.40200
H944        H  0.39437782  0.99403505  0.90054511     0.35100
C945        C  0.35840300  0.95939291  0.17071039    -0.26600
C946        C  0.35298142  0.94218096  0.17230596    -0.14700
C947        C  0.36079177  0.93589658  0.14457063     0.35900
C948        C  0.37337562  0.94676526  0.11457255    -0.26100
C949        C  0.37798498  0.96380911  0.11108533    -0.15300
C950        C  0.37046019  0.97011301  0.13988637     0.37000
N951        N  0.37409844  0.98712081  0.13602192    -0.89600
H952        H  0.35212746  0.96433357  0.19089263     0.18100
H953        H  0.37927117  0.94177516  0.09331971     0.18100
N954        N  0.35576294  0.91846412  0.14632932    -0.88600
H955        H  0.36272208  0.98697027  0.13040036     0.35500
H956        H  0.37862437  0.99294393  0.16527583     0.40600
H957        H  0.36651732  0.91754334  0.15264630     0.40200
H958        H  0.35152515  0.91346382  0.11613505     0.35100
C959        C  0.43595637  0.05920749  0.86722681    -0.26600
C960        C  0.42347355  0.04972101  0.83767014    -0.14700
C961        C  0.42155868  0.03416877  0.82520450     0.35900
C962        C  0.42938604  0.02711284  0.84882670    -0.26100
C963        C  0.43820121  0.03471512  0.88647368    -0.15300
C964        C  0.44337472  0.05190669  0.89194118     0.37000
N965        N  0.45546431  0.06174851  0.92343500    -0.89600
H966        H  0.43854823  0.07175737  0.87454983     0.18100
H967        H  0.42673520  0.01473783  0.83999881     0.18100
N968        N  0.41061960  0.02449832  0.79157718    -0.88600
H969        H  0.45760317  0.07402233  0.92347004     0.35500
H970        H  0.46700899  0.06255803  0.91460385     0.40600
H971        H  0.41395223  0.03208618  0.76390198     0.40200
H972        H  0.39802295  0.02047358  0.80064375     0.35100
C973        C  0.43266169  0.03647824  0.05823362    -0.26600
C974        C  0.43578182  0.02342202  0.07055691    -0.14700
C975        C  0.43603581  0.02087463  0.11562430     0.35900
C976        C  0.43004458  0.02877266  0.14503009    -0.26100
C977        C  0.42559146  0.04063011  0.13105033    -0.15300
C978        C  0.42861034  0.04551545  0.08765394     0.37000
N979        N  0.42569668  0.05853240  0.07222410    -0.89600
H980        H  0.43107941  0.03867218  0.02536961     0.18100
H981        H  0.42821754  0.02514977  0.17864462     0.18100
N982        N  0.44099176  0.00929349  0.13141086    -0.88600
H983        H  0.41616975  0.05344668  0.04961273     0.35500
H984        H  0.43687619  0.06770476  0.05675319     0.40600
H985        H  0.43194567  0.99719119  0.12272048     0.40200
H986        H  0.44094111  0.00923916  0.16492774     0.35100
C987        C  0.99062596  0.63432445  0.77088711    -0.26600
C988        C  0.97853978  0.63439155  0.79960641    -0.14700
C989        C  0.98384968  0.64118749  0.84062852     0.35900
C990        C  0.00067948  0.64701345  0.85261726    -0.26100
C991        C  0.01256428  0.64608299  0.82488580    -0.15300
C992        C  0.00743761  0.64002196  0.78291159     0.37000
N993        N  0.01871056  0.63884967  0.75217868    -0.89600
H994        H  0.98679674  0.62907206  0.73938560     0.18100
H995        H  0.00421648  0.65163739  0.88476487     0.18100
N996        N  0.97196548  0.64127219  0.87142136    -0.88600
H997        H  0.02258126  0.63074521  0.76433033     0.35500
H998        H  0.02931545  0.65080861  0.74708562     0.40600
H999        H  0.97654957  0.65363545  0.88101789     0.40200
H1000       H  0.97145568  0.63415075  0.89822501     0.35100
C1001       C  0.92841882  0.61179600  0.94393430    -0.26600
C1002       C  0.91811357  0.59768318  0.91940285    -0.14700
C1003       C  0.90817326  0.58199600  0.94059008     0.35900
C1004       C  0.90881300  0.58072655  0.98529886    -0.26100
C1005       C  0.91946249  0.59475827  0.00964169    -0.15300
C1006       C  0.92926380  0.61046108  0.98854857     0.37000
N1007       N  0.94019546  0.62511171  0.01212740    -0.89600
H1008       H  0.93630343  0.62392523  0.92833153     0.18100
H1009       H  0.90127013  0.56852687  0.00083165     0.18100
N1010       N  0.89775744  0.56719066  0.91690014    -0.88600
H1011       H  0.93650689  0.63405278  0.00688744     0.35500
H1012       H  0.95259332  0.62998668  0.99976229     0.40600
H1013       H  0.88523115  0.56199889  0.92858205     0.40200
H1014       H  0.90177452  0.55853578  0.92275788     0.35100
C1015       C  0.99626891  0.64741012  0.18931903    -0.26600
C1016       C  0.00333277  0.64133006  0.21919265    -0.14700
C1017       C  0.99258365  0.62522945  0.23839737     0.35900
C1018       C  0.97568432  0.61551897  0.22567132    -0.26100
C1019       C  0.96905284  0.62122368  0.19367888    -0.15300
C1020       C  0.97940119  0.63758179  0.17641095     0.37000
N1021       N  0.97299833  0.64422104  0.14497519    -0.89600
H1022       H  0.00410549  0.65965567  0.17425061     0.18100
H1023       H  0.96794894  0.60302622  0.23950352     0.18100
N1024       N  0.99847438  0.61801948  0.26968455    -0.88600
H1025       H  0.98073845  0.64725256  0.11726960     0.35500
H1026       H  0.97403353  0.65529726  0.15670927     0.40600
H1027       H  0.00331170  0.62622179  0.29530850     0.40200
H1028       H  0.00804791  0.61630525  0.25592837     0.35100
C1029       C  0.86535503  0.60026440  0.22656466    -0.26600
C1030       C  0.85686595  0.58848473  0.25999884    -0.14700
C1031       C  0.86174304  0.57640189  0.26817644     0.35900
C1032       C  0.87482791  0.57624808  0.24340057    -0.26100
C1033       C  0.88361764  0.58816408  0.21040188    -0.15300
C1034       C  0.87870249  0.60031284  0.20208935     0.37000
N1035       N  0.88738017  0.61294376  0.16934737    -0.89600
H1036       H  0.86209888  0.60990474  0.22048435     0.18100
H1037       H  0.87825007  0.56680453  0.25053900     0.18100
N1038       N  0.85335081  0.56415122  0.30189643    -0.88600
H1039       H  0.89253135  0.62469276  0.18359468     0.35500
H1040       H  0.87842903  0.61200621  0.14746273     0.40600
H1041       H  0.84803866  0.55225063  0.28853074     0.40200
H1042       H  0.86251801  0.56533254  0.32343550     0.35100
C1043       C  0.80323482  0.60663122  0.30602979    -0.26600
C1044       C  0.80435871  0.59237661  0.29536349    -0.14700
C1045       C  0.78923357  0.57748350  0.28549796     0.35900
C1046       C  0.77342460  0.57711061  0.28733275    -0.26100
C1047       C  0.77228637  0.59114688  0.30018246    -0.15300
C1048       C  0.78751438  0.60611306  0.30908134     0.37000
N1049       N  0.78729536  0.62076950  0.32342979    -0.89600
H1050       H  0.81459627  0.61798436  0.31509845     0.18100
H1051       H  0.76179589  0.56542766  0.28199871     0.18100
N1052       N  0.78979453  0.56246963  0.27656169    -0.88600
H1053       H  0.78020916  0.61783606  0.35221774     0.35500
H1054       H  0.78125259  0.62411285  0.30052314     0.40600
H1055       H  0.79359003  0.55899396  0.30434150     0.40200
H1056       H  0.77764607  0.55259387  0.27021996     0.35100
C1057       C  0.73370693  0.59879649  0.48648770    -0.26600
C1058       C  0.73944114  0.58944433  0.50923374    -0.14700
C1059       C  0.74088278  0.57667894  0.48809618     0.35900
C1060       C  0.73851587  0.57487326  0.44376001    -0.26100
C1061       C  0.73465119  0.58547655  0.42006611    -0.15300
C1062       C  0.73142420  0.59703159  0.44209262     0.37000
N1063       N  0.72713103  0.60800440  0.41990783    -0.89600
H1064       H  0.73226197  0.60842934  0.50258236     0.18100
H1065       H  0.74060966  0.56572672  0.42713898     0.18100
N1066       N  0.74535404  0.56600630  0.51148971    -0.88600
H1067       H  0.73672057  0.61503087  0.39702974     0.35500
H1068       H  0.71574861  0.60066249  0.40421330     0.40600
H1069       H  0.74604266  0.55736101  0.49116274     0.40200
H1070       H  0.73552089  0.55904120  0.53390645     0.35100
C1071       C  0.87250355  0.61220067  0.68194211    -0.26600
C1072       C  0.86939964  0.60345948  0.64333123    -0.14700
C1073       C  0.87898996  0.59561771  0.63339089     0.35900
C1074       C  0.89115216  0.59645787  0.66195651    -0.26100
C1075       C  0.89414802  0.60501896  0.70081070    -0.15300
C1076       C  0.88481601  0.61318250  0.71036967     0.37000
N1077       N  0.88778106  0.62254923  0.74881598    -0.89600
H1078       H  0.86542916  0.61845824  0.69003770     0.18100
H1079       H  0.89807464  0.59004819  0.65387652     0.18100
N1080       N  0.87604291  0.58624293  0.59495205    -0.88600
H1081       H  0.87632204  0.61748279  0.76650055     0.35500
H1082       H  0.89140576  0.63491743  0.74018659     0.40600
H1083       H  0.87251021  0.57388892  0.60353761     0.40200
H1084       H  0.88747637  0.59138932  0.57716693     0.35100
C1085       C  0.85318818  0.59175653  0.47461824    -0.26600
C1086       C  0.84708849  0.60093993  0.49712959    -0.14700
C1087       C  0.83982575  0.60891081  0.47404572     0.35900
C1088       C  0.83750449  0.60651727  0.43012821    -0.26100
C1089       C  0.84253100  0.59650754  0.40773812    -0.15300
C1090       C  0.85098742  0.58950330  0.42997292     0.37000
N1091       N  0.85661102  0.57948021  0.40793069    -0.89600
H1092       H  0.85876288  0.58554987  0.49193814     0.18100
H1093       H  0.83147767  0.61244839  0.41355038     0.18100
N1094       N  0.83445859  0.61930243  0.49538584    -0.88600
H1095       H  0.85063766  0.56755773  0.42247016     0.35500
H1096       H  0.86970292  0.58491261  0.41195162     0.40600
H1097       H  0.84089808  0.63125000  0.48092446     0.40200
H1098       H  0.82145915  0.61426323  0.49071703     0.35100
C1099       C  0.81186784  0.61154815  0.63407282    -0.26600
C1100       C  0.81245417  0.59746627  0.61916966    -0.14700
C1101       C  0.79741213  0.58356771  0.60496873     0.35900
C1102       C  0.78243581  0.58429104  0.60320590    -0.26100
C1103       C  0.78204642  0.59876563  0.61497854    -0.15300
C1104       C  0.79682771  0.61236608  0.63193999     0.37000
N1105       N  0.79733500  0.62759768  0.64393897    -0.89600
H1106       H  0.82347230  0.62252846  0.64365038     0.18100
H1107       H  0.77123505  0.57374285  0.59028225     0.18100
N1108       N  0.79765785  0.56908641  0.58925577    -0.88600
H1109       H  0.79404522  0.63231458  0.61753233     0.35500
H1110       H  0.78832437  0.62480428  0.66862174     0.40600
H1111       H  0.79403194  0.56751143  0.55731657     0.40200
H1112       H  0.78856966  0.55859610  0.60693120     0.35100
C1113       C  0.72980115  0.61761128  0.72347387    -0.26600
C1114       C  0.71283407  0.61233571  0.71443056    -0.14700
C1115       C  0.70643245  0.60499726  0.67481143     0.35900
C1116       C  0.71695966  0.60295817  0.64496137    -0.26100
C1117       C  0.73388883  0.60776853  0.65402798    -0.15300
C1118       C  0.74029908  0.61517996  0.69400939     0.37000
N1119       N  0.75735259  0.62016760  0.70516887    -0.89600
H1120       H  0.73477783  0.62313713  0.75414031     0.18100
H1121       H  0.71160184  0.59721914  0.61477816     0.18100
N1122       N  0.68922086  0.59973640  0.66453178    -0.88600
H1123       H  0.75684949  0.61364850  0.73324703     0.35500
H1124       H  0.76365571  0.63297295  0.71170691     0.40600
H1125       H  0.68307472  0.58691596  0.65799111     0.40200
H1126       H  0.68940207  0.60616488  0.63664119     0.35100
C1127       C  0.69928713  0.57996789  0.20841693    -0.26600
C1128       C  0.69048268  0.58817129  0.22199961    -0.14700
C1129       C  0.69447391  0.59606309  0.26219222     0.35900
C1130       C  0.70712023  0.59585307  0.28718444    -0.26100
C1131       C  0.71628600  0.58805656  0.27314604    -0.15300
C1132       C  0.71207251  0.57990310  0.23314048     0.37000
N1133       N  0.72017724  0.57102893  0.21716696    -0.89600
H1134       H  0.69643697  0.57376462  0.17783987     0.18100
H1135       H  0.70985723  0.60199297  0.31786219     0.18100
N1136       N  0.68557050  0.60416320  0.27823552    -0.88600
H1137       H  0.73311069  0.57954651  0.21203298     0.35500
H1138       H  0.71870767  0.56207532  0.24022626     0.40600
H1139       H  0.67971765  0.59847658  0.30764501     0.40200
H1140       H  0.69449003  0.61671549  0.28375612     0.35100
C1141       C  0.68729710  0.62623249  0.00497290    -0.26600
C1142       C  0.68494623  0.61085441  0.02098294    -0.14700
C1143       C  0.68914016  0.60113292  0.99379546     0.35900
C1144       C  0.69410178  0.60621113  0.95108535    -0.26100
C1145       C  0.69411079  0.62032739  0.93352563    -0.15300
C1146       C  0.69149322  0.63091866  0.96162004     0.37000
N1147       N  0.69224451  0.64607822  0.94708976    -0.89600
H1148       H  0.68455885  0.63410787  0.02544416     0.18100
H1149       H  0.69637940  0.59803894  0.93056262     0.18100
N1150       N  0.68788466  0.58570311  0.00784561    -0.88600
H1151       H  0.68228359  0.64310766  0.92646243     0.35500
H1152       H  0.70385243  0.65348974  0.93065555     0.40600
H1153       H  0.67515091  0.57695194  0.01492873     0.40200
H1154       H  0.69498565  0.58793617  0.03538576     0.35100
C1155       C  0.01023275  0.57958842  0.89418591    -0.26600
C1156       C  0.01266615  0.57170857  0.93026132    -0.14700
C1157       C  0.02959871  0.57908123  0.94461601     0.35900
C1158       C  0.04229526  0.59508954  0.92815835    -0.26100
C1159       C  0.03892573  0.60309547  0.89419962    -0.15300
C1160       C  0.02326519  0.59410746  0.87415396     0.37000
N1161       N  0.01973732  0.60095507  0.83674230    -0.89600
H1162       H  0.99785324  0.57635206  0.88409419     0.18100
H1163       H  0.05443091  0.60163859  0.94355939     0.18100
N1164       N  0.03342462  0.57144902  0.97946938    -0.88600
H1165       H  0.00728529  0.59322413  0.82705611     0.35500
H1166       H  0.02760029  0.60098721  0.81168451     0.40600
H1167       H  0.03815128  0.57996738  0.00444397     0.40200
H1168       H  0.04310654  0.56922537  0.96897192     0.35100
C1169       C  0.92355208  0.54972646  0.84051871    -0.26600
C1170       C  0.93383643  0.56117431  0.80803838    -0.14700
C1171       C  0.94997420  0.56311643  0.79910610     0.35900
C1172       C  0.95679141  0.55640630  0.82772296    -0.26100
C1173       C  0.94762798  0.54740905  0.86505535    -0.15300
C1174       C  0.93013916  0.54245542  0.86846227     0.37000
N1175       N  0.91927344  0.53056978  0.90096988    -0.89600
H1176       H  0.91076979  0.54745033  0.84635586     0.18100
H1177       H  0.96982541  0.55957206  0.82199467     0.18100
N1178       N  0.96001593  0.57292015  0.76274540    -0.88600
H1179       H  0.91869637  0.51915826  0.89464115     0.35500
H1180       H  0.90687606  0.52843725  0.89922628     0.40600
H1181       H  0.96300642  0.56533372  0.74392583     0.40200
H1182       H  0.97136529  0.58284857  0.77371270     0.35100
C1183       C  0.03220710  0.60288185  0.08956327    -0.26600
C1184       C  0.01484425  0.59821948  0.08898424    -0.14700
C1185       C  0.00821771  0.60354652  0.12288627     0.35900
C1186       C  0.01867364  0.61288600  0.15627378    -0.26100
C1187       C  0.03605208  0.61803411  0.15612288    -0.15300
C1188       C  0.04285224  0.61296818  0.12224960     0.37000
N1189       N  0.06055035  0.61811440  0.12076783    -0.89600
H1190       H  0.03765202  0.59881874  0.06446647     0.18100
H1191       H  0.01336230  0.61734911  0.18068205     0.18100
N1192       N  0.99112757  0.60042866  0.12247884    -0.88600
H1193       H  0.06584638  0.62474701  0.09201064     0.35500
H1194       H  0.06162175  0.60731595  0.12034987     0.40600
H1195       H  0.99152474  0.61198361  0.12279964     0.40200
H1196       H  0.98482597  0.59383518  0.15065714     0.35100
C1197       C  0.93764310  0.53667532  0.03862120    -0.26600
C1198       C  0.95410107  0.54072606  0.05050529    -0.14700
C1199       C  0.95723071  0.54314642  0.09478273     0.35900
C1200       C  0.94784296  0.54858180  0.12017555    -0.26100
C1201       C  0.93420764  0.54964279  0.10307085    -0.15300
C1202       C  0.92806147  0.54192640  0.06328409     0.37000
N1203       N  0.91295627  0.54039115  0.04560543    -0.89600
H1204       H  0.93236360  0.53001328  0.00973194     0.18100
H1205       H  0.95199601  0.55319206  0.15203691     0.18100
N1206       N  0.97126960  0.54229955  0.11223484    -0.88600
H1207       H  0.91462933  0.55239653  0.04110357     0.35500
H1208       H  0.90285577  0.53366312  0.06750737     0.40600
H1209       H  0.96846189  0.52983733  0.11031455     0.40200
H1210       H  0.97229856  0.54513216  0.14478105     0.35100
C1211       C  0.80218825  0.19883452  0.32409247    -0.26600
C1212       C  0.80221656  0.21384500  0.33240922    -0.14700
C1213       C  0.78672020  0.21309087  0.34308804     0.35900
C1214       C  0.77168157  0.19753073  0.34729077    -0.26100
C1215       C  0.77175241  0.18248971  0.34145395    -0.15300
C1216       C  0.78707193  0.18310204  0.32867958     0.37000
N1217       N  0.78752911  0.16779194  0.32438442    -0.89600
H1218       H  0.81419905  0.19929382  0.31800706     0.32500
H1219       H  0.76003941  0.19716786  0.35764467     0.18100
N1220       N  0.78651900  0.22814724  0.35327752    -0.88600
H1221       H  0.78013589  0.16141713  0.29837319     0.35500
H1222       H  0.79989504  0.17040303  0.31679934     0.40600
H1223       H  0.78191304  0.22698194  0.38488520     0.40200
H1224       H  0.77800987  0.22910969  0.33316632     0.35100
C1225       C  0.73614308  0.15831002  0.52965074    -0.26600
C1226       C  0.72892082  0.14209806  0.54804109    -0.14700
C1227       C  0.72142404  0.12824157  0.52065310     0.35900
C1228       C  0.72310530  0.13090946  0.47567865    -0.26100
C1229       C  0.73210275  0.14725733  0.45746881    -0.15300
C1230       C  0.73764772  0.16099469  0.48513685     0.37000
N1231       N  0.74506950  0.17780234  0.46832208    -0.89600
H1232       H  0.74132164  0.16916378  0.55005156     0.18100
H1233       H  0.71816226  0.12011904  0.45512351     0.18100
N1234       N  0.71287260  0.11149594  0.53807392    -0.88600
H1235       H  0.75733014  0.18480127  0.48004883     0.35500
H1236       H  0.73786677  0.18299249  0.47993153     0.40600
H1237       H  0.70041761  0.10544195  0.52737005     0.40200
H1238       H  0.71890896  0.10522346  0.52568480     0.35100
C1239       C  0.84147239  0.25548067  0.47941280    -0.26600
C1240       C  0.83556416  0.24121628  0.45378321    -0.14700
C1241       C  0.82892172  0.22524437  0.47439371     0.35900
C1242       C  0.82689052  0.22373755  0.51878880    -0.26100
C1243       C  0.83171514  0.23771938  0.54443903    -0.15300
C1244       C  0.83972186  0.25390230  0.52473929     0.37000
N1245       N  0.84561807  0.26856327  0.55053458    -0.89600
H1246       H  0.84673062  0.26774114  0.46410504     0.18100
H1247       H  0.82147530  0.21133788  0.53344980     0.18100
N1248       N  0.82446861  0.21021482  0.45135432    -0.88600
H1249       H  0.83499980  0.26806624  0.56563873     0.35500
H1250       H  0.85132693  0.27943841  0.53118923     0.40600
H1251       H  0.81334714  0.20647820  0.43467598     0.40200
H1252       H  0.83445044  0.21246103  0.43005083     0.35100
C1253       C  0.78178261  0.19893350  0.66816416    -0.26600
C1254       C  0.79731396  0.19932152  0.66182031    -0.14700
C1255       C  0.79717331  0.18389912  0.66057270     0.35900
C1256       C  0.78162172  0.16857707  0.66309870    -0.26100
C1257       C  0.76596019  0.16817539  0.66679657    -0.15300
C1258       C  0.76620446  0.18365607  0.67082669     0.37000
N1259       N  0.75081908  0.18438383  0.67554473    -0.89600
H1260       H  0.78165300  0.21064218  0.66878937     0.18100
H1261       H  0.78172004  0.15695736  0.65863666     0.18100
N1262       N  0.81259766  0.18348183  0.65401840    -0.88600
H1263       H  0.74014315  0.17241484  0.67922177     0.35500
H1264       H  0.74941175  0.18971717  0.64741976     0.40600
H1265       H  0.81835838  0.18968377  0.62503818     0.40200
H1266       H  0.82074386  0.19007796  0.67875133     0.35100
C1267       C  0.70463208  0.09350394  0.75393503    -0.26600
C1268       C  0.68699076  0.08646277  0.74829814    -0.14700
C1269       C  0.68186262  0.09280505  0.71370308     0.35900
C1270       C  0.69423979  0.10563744  0.68600167    -0.26100
C1271       C  0.71183373  0.11292403  0.69239603    -0.15300
C1272       C  0.71691827  0.10656691  0.72684397     0.37000
N1273       N  0.73461296  0.11306843  0.73402721    -0.89600
H1274       H  0.70902430  0.08891745  0.77989122     0.18100
H1275       H  0.69005541  0.11032910  0.65983111     0.18100
N1276       N  0.66410432  0.08634524  0.70677531    -0.88600
H1277       H  0.73707626  0.10314930  0.73220956     0.35500
H1278       H  0.73709239  0.11769060  0.76515347     0.40600
H1279       H  0.65925304  0.09002832  0.73254645     0.40200
H1280       H  0.66243019  0.09186344  0.67934689     0.35100
C1281       C  0.70897537  0.09638035  0.29171336    -0.26600
C1282       C  0.70283065  0.09987603  0.25449441    -0.14700
C1283       C  0.70833199  0.11684461  0.24339052     0.35900
C1284       C  0.71895360  0.12971312  0.27109465    -0.26100
C1285       C  0.72413341  0.12599833  0.30960881    -0.15300
C1286       C  0.71945036  0.10925631  0.31932847     0.37000
N1287       N  0.72540756  0.10530496  0.35727335    -0.89600
H1288       H  0.70516129  0.08352396  0.30030716     0.18100
H1289       H  0.72275386  0.14263571  0.26330271     0.18100
N1290       N  0.70296096  0.12096024  0.20442371    -0.88600
H1291       H  0.71481247  0.09675504  0.37589760     0.35500
H1292       H  0.73222254  0.09941036  0.34813891     0.40600
H1293       H  0.70823779  0.11765322  0.17884209     0.40200
H1294       H  0.70784180  0.13391829  0.20153469     0.35100
C1295       C  0.67366857  0.04991323  0.03290678    -0.26600
C1296       C  0.67482844  0.06402077  0.05308305    -0.14700
C1297       C  0.67521959  0.07691670  0.02746081     0.35900
C1298       C  0.67283775  0.07472447  0.98303527    -0.26100
C1299       C  0.67040349  0.05998435  0.96338972    -0.15300
C1300       C  0.67156387  0.04783008  0.98859586     0.37000
N1301       N  0.66999020  0.03298363  0.96975394    -0.89600
H1302       H  0.67365005  0.03999576  0.05182761     0.18100
H1303       H  0.67239035  0.08439831  0.96412547     0.18100
N1304       N  0.67759754  0.09205831  0.04639912    -0.88600
H1305       H  0.65965134  0.02256129  0.98472207     0.35500
H1306       H  0.68097512  0.03250240  0.97609616     0.40600
H1307       H  0.66709922  0.09334251  0.03953431     0.40200
H1308       H  0.68837459  0.10215311  0.03184817     0.35100
C1309       C  0.85815076  0.26819372  0.68843544    -0.26600
C1310       C  0.85267309  0.25100296  0.69080526    -0.14700
C1311       C  0.86078161  0.24537620  0.71906533     0.35900
C1312       C  0.87380093  0.25704338  0.74535058    -0.26100
C1313       C  0.87896588  0.27425841  0.74372135    -0.15300
C1314       C  0.87102921  0.27976179  0.71445881     0.37000
N1315       N  0.87604178  0.29716586  0.71063985    -0.89600
H1316       H  0.85226717  0.27272909  0.66628405     0.18100
H1317       H  0.87989369  0.25266292  0.76722474     0.18100
N1318       N  0.85606841  0.22796190  0.72025324    -0.88600
H1319       H  0.88009103  0.30110582  0.67889930     0.35500
H1320       H  0.86536689  0.29834875  0.71712341     0.40600
H1321       H  0.85917346  0.22510091  0.69018422     0.40200
H1322       H  0.86327200  0.22587200  0.74245349     0.35100
C1323       C  0.87769038  0.27357851  0.24516638    -0.26600
C1324       C  0.88453926  0.29086965  0.25207814    -0.14700
C1325       C  0.87789155  0.29580181  0.28692034     0.35900
C1326       C  0.86502146  0.28341628  0.31441251    -0.26100
C1327       C  0.85827905  0.26616068  0.30730244    -0.15300
C1328       C  0.86462287  0.26132586  0.27189659     0.37000
N1329       N  0.85809840  0.24390480  0.26347222    -0.89600
H1330       H  0.88243447  0.26945165  0.21850681     0.18100
H1331       H  0.86008027  0.28724616  0.34126577     0.18100
N1332       N  0.88422894  0.31330380  0.29447349    -0.88600
H1333       H  0.86819875  0.24152936  0.26407409     0.35500
H1334       H  0.85333535  0.24159768  0.23255899     0.40600
H1335       H  0.87774863  0.31481080  0.32065841     0.40200
H1336       H  0.89690921  0.31858910  0.30296983     0.35100
C1337       C  0.89647501  0.30128421  0.02325444    -0.26600
C1338       C  0.91052816  0.30212303  0.04358875    -0.14700
C1339       C  0.92162193  0.29845562  0.01931176     0.35900
C1340       C  0.91928072  0.29556007  0.97537032    -0.26100
C1341       C  0.90633231  0.29654501  0.95427519    -0.15300
C1342       C  0.89426564  0.29856384  0.97891000     0.37000
N1343       N  0.88020516  0.29851210  0.95861424    -0.89600
H1344       H  0.88761784  0.30361445  0.04153656     0.18100
H1345       H  0.92853983  0.29382588  0.95705813     0.18100
N1346       N  0.93586046  0.29830570  0.03757195    -0.88600
H1347       H  0.87261642  0.30034531  0.98114080     0.35500
H1348       H  0.87261936  0.28656213  0.94626413     0.40600
H1349       H  0.93152535  0.28978066  0.06344888     0.40200
H1350       H  0.94442591  0.31033157  0.04807977     0.35100
C1351       C  0.00291788  0.48708614  0.00717620    -0.26600
C1352       C  0.98807933  0.47200255  0.99775480    -0.14700
C1353       C  0.97313958  0.47268889  0.99035205     0.35900
C1354       C  0.97326800  0.48814991  0.99249427    -0.26100
C1355       C  0.98814491  0.50323968  0.00178237    -0.15300
C1356       C  0.00300765  0.50250521  0.00968841     0.37000
N1357       N  0.01809631  0.51734285  0.02195687    -0.89600
H1358       H  0.01441884  0.48680542  0.01376541     0.18100
H1359       H  0.96172932  0.48840272  0.98622761     0.18100
N1360       N  0.95787513  0.45774553  0.97957046    -0.88600
H1361       H  0.02787126  0.51948777  0.00001750     0.35500
H1362       H  0.02141304  0.51506414  0.05207246     0.40600
H1363       H  0.95416117  0.45973972  0.94970570     0.40200
H1364       H  0.94839305  0.45584320  0.00224444     0.35100
C1365       C  0.95008427  0.38551619  0.83502148    -0.26600
C1366       C  0.94201084  0.38959851  0.86808530    -0.14700
C1367       C  0.92425284  0.37874721  0.87496658     0.35900
C1368       C  0.91640919  0.36261093  0.85756003    -0.26100
C1369       C  0.92559445  0.35760900  0.83069309    -0.15300
C1370       C  0.94214997  0.36965030  0.81678157     0.37000
N1371       N  0.95171353  0.36530737  0.78772639    -0.89600
H1372       H  0.96326809  0.39378212  0.82608823     0.18100
H1373       H  0.90328882  0.35373745  0.86645971     0.18100
N1374       N  0.91383811  0.38375280  0.89854790    -0.88600
H1375       H  0.96248819  0.36692042  0.80335033     0.35500
H1376       H  0.95578213  0.37366411  0.76156228     0.40600
H1377       H  0.92067916  0.39648966  0.90578505     0.40200
H1378       H  0.90960607  0.37666952  0.92706778     0.35100
C1379       C  0.94333088  0.38200803  0.03269025    -0.26600
C1380       C  0.95480300  0.39850640  0.04598872    -0.14700
C1381       C  0.95686681  0.40065388  0.09108720     0.35900
C1382       C  0.94846027  0.38648025  0.11984318    -0.26100
C1383       C  0.93740044  0.37019503  0.10500537    -0.15300
C1384       C  0.93443781  0.36834296  0.06088753     0.37000
N1385       N  0.92380797  0.35206233  0.04342840    -0.89600
H1386       H  0.94282722  0.37861808  0.99967801     0.18100
H1387       H  0.95115153  0.38804517  0.15365194     0.18100
N1388       N  0.96919578  0.41668298  0.10707717    -0.88600
H1389       H  0.93120063  0.34932183  0.02247796     0.35500
H1390       H  0.91442263  0.35253083  0.02574648     0.40600
H1391       H  0.97043449  0.41588292  0.14010079     0.40200
H1392       H  0.96443954  0.42480490  0.10276808     0.35100
C1393       C  0.99626056  0.33978261  0.83850529    -0.26600
C1394       C  0.00391468  0.35373107  0.81014256    -0.14700
C1395       C  0.99362814  0.35556772  0.77972474     0.35900
C1396       C  0.97606490  0.34391685  0.77922145    -0.26100
C1397       C  0.96831563  0.33065561  0.80942942    -0.15300
C1398       C  0.97863998  0.32841184  0.83864416     0.37000
N1399       N  0.97123795  0.31465129  0.86884761    -0.89600
H1400       H  0.00386429  0.33797826  0.86187479     0.18100
H1401       H  0.96828935  0.34589849  0.75676814     0.18100
N1402       N  0.00075787  0.36959681  0.75034761    -0.88600
H1403       H  0.97400888  0.31952113  0.89964928     0.35500
H1404       H  0.97708414  0.30745126  0.86400436     0.40600
H1405       H  0.99445790  0.37634875  0.75543548     0.40200
H1406       H  0.99835950  0.36498758  0.71921602     0.35100
C1407       C  0.01475640  0.40648858  0.86745929    -0.26600
C1408       C  0.03162661  0.41916372  0.86479723    -0.14700
C1409       C  0.03628709  0.43463993  0.88436407     0.35900
C1410       C  0.02393895  0.43679529  0.90819451    -0.26100
C1411       C  0.00716760  0.42331503  0.91439044    -0.15300
C1412       C  0.00287149  0.40792656  0.89315818     0.37000
N1413       N  0.98696548  0.39281123  0.90182467    -0.89600
H1414       H  0.01110273  0.39438953  0.85356971     0.18100
H1415       H  0.02782614  0.44843359  0.92464329     0.18100
N1416       N  0.05352718  0.44800785  0.88077606    -0.88600
H1417       H  0.98942348  0.38399328  0.91618411     0.35500
H1418       H  0.98121352  0.38797316  0.87263716     0.40600
H1419       H  0.05807726  0.45136249  0.91170684     0.40200
H1420       H  0.05357787  0.45831207  0.86634889     0.35100
C1421       C  0.99788115  0.34390938  0.22567558    -0.26600
C1422       C  0.00491360  0.33797215  0.19428646    -0.14700
C1423       C  0.99382247  0.32634524  0.16440762     0.35900
C1424       C  0.97676733  0.32225417  0.16409797    -0.26100
C1425       C  0.97020187  0.32952955  0.19259271    -0.15300
C1426       C  0.98072771  0.33983096  0.22504827     0.37000
N1427       N  0.97430009  0.34664922  0.25655678    -0.89600
H1428       H  0.00595982  0.35261243  0.24944329     0.18100
H1429       H  0.96879649  0.31389340  0.13963300     0.18100
N1430       N  0.99950511  0.31890119  0.13278321    -0.88600
H1431       H  0.98170166  0.35973607  0.25467063     0.35500
H1432       H  0.97584433  0.34273861  0.28680141     0.40600
H1433       H  0.00543772  0.31317583  0.14825639     0.40200
H1434       H  0.00813961  0.32822478  0.11153330     0.35100
C1435       C  0.01875904  0.38631731  0.13105537    -0.26600
C1436       C  0.03642392  0.39712667  0.12877815    -0.14700
C1437       C  0.04339677  0.41028685  0.09805461     0.35900
C1438       C  0.03263445  0.41227146  0.06984073    -0.26100
C1439       C  0.01499457  0.40086876  0.07071969    -0.15300
C1440       C  0.00814490  0.38767350  0.10160334     0.37000
N1441       N  0.99058991  0.37487896  0.10142062    -0.89600
H1442       H  0.01321390  0.37568419  0.15329183     0.18100
H1443       H  0.03816364  0.42258625  0.04676591     0.18100
N1444       N  0.06139070  0.42142435  0.09488010    -0.88600
H1445       H  0.98511511  0.37449863  0.13153479     0.35500
H1446       H  0.98991745  0.36331532  0.09687999     0.40600
H1447       H  0.06374648  0.43366106  0.09907289     0.40200
H1448       H  0.06555976  0.42068314  0.06390661     0.35100
C1449       C  0.07761015  0.38707331  0.01851423    -0.26600
C1450       C  0.06612036  0.37103525  0.03574931    -0.14700
C1451       C  0.05542510  0.35840034  0.00752209     0.35900
C1452       C  0.05560563  0.36229916  0.96371757    -0.26100
C1453       C  0.06600860  0.37874524  0.94742120    -0.15300
C1454       C  0.07756589  0.39104950  0.97502781     0.37000
N1455       N  0.08887101  0.40781747  0.95957568    -0.89600
H1456       H  0.08606807  0.39698268  0.03936192     0.18100
H1457       H  0.04675493  0.35260048  0.94299258     0.18100
N1458       N  0.04377243  0.34179577  0.02335444    -0.88600
H1459       H  0.10131129  0.41071080  0.96548276     0.35500
H1460       H  0.08634045  0.41598833  0.97721644     0.40600
H1461       H  0.04633036  0.33341303  0.00686025     0.40200
H1462       H  0.03147065  0.33903819  0.01618164     0.35100
C1463       C  0.11376534  0.36494560  0.27626534    -0.26600
C1464       C  0.11777016  0.37602948  0.31064156    -0.14700
C1465       C  0.10900874  0.38503997  0.31500095     0.35900
C1466       C  0.09673423  0.38295087  0.28535382    -0.26100
C1467       C  0.09269027  0.37189468  0.25107902    -0.15300
C1468       C  0.10127995  0.36271980  0.24679295     0.37000
N1469       N  0.09763149  0.35135534  0.21222861    -0.89600
H1470       H  0.12028827  0.35787604  0.27229474     0.18100
H1471       H  0.09031128  0.39011542  0.28932802     0.18100
N1472       N  0.11282159  0.39674866  0.34881465    -0.88600
H1473       H  0.09373368  0.33945694  0.22531589     0.35500
H1474       H  0.10890676  0.35521410  0.19438286     0.40600
H1475       H  0.10162850  0.39307852  0.36684364     0.40200
H1476       H  0.11673913  0.40855021  0.33504170     0.35100
C1477       C  0.18952932  0.36512396  0.35066781    -0.26600
C1478       C  0.20401171  0.37947891  0.33377746    -0.14700
C1479       C  0.20213868  0.39256111  0.31616330     0.35900
C1480       C  0.18627460  0.39181748  0.31940075    -0.26100
C1481       C  0.17224630  0.37817095  0.34010647    -0.15300
C1482       C  0.17373846  0.36434521  0.35391372     0.37000
N1483       N  0.15960053  0.34971495  0.37322958    -0.89600
H1484       H  0.19081298  0.35502597  0.36469423     0.18100
H1485       H  0.18527249  0.40249589  0.30864357     0.18100
N1486       N  0.21664641  0.40725827  0.29842906    -0.88600
H1487       H  0.14977493  0.34479567  0.35141927     0.35500
H1488       H  0.15541350  0.35328404  0.40052774     0.40600
H1489       H  0.21826055  0.41759236  0.31589076     0.40200
H1490       H  0.21401834  0.40888477  0.26690439     0.35100
C1491       C  0.24791511  0.39110970  0.52546998    -0.26600
C1492       C  0.23756946  0.39729421  0.54235495    -0.14700
C1493       C  0.22978212  0.40300687  0.51277255     0.35900
C1494       C  0.23161568  0.40144551  0.46887575    -0.26100
C1495       C  0.24092708  0.39425585  0.45238904    -0.15300
C1496       C  0.24963494  0.38956627  0.48088781     0.37000
N1497       N  0.25959499  0.38257371  0.46495407    -0.89600
H1498       H  0.25432384  0.38693264  0.54688398     0.18100
H1499       H  0.22510181  0.40544429  0.44721959     0.18100
N1500       N  0.21978342  0.41038535  0.52554454    -0.88600
H1501       H  0.27201403  0.39005777  0.47525953     0.35500
H1502       H  0.25473084  0.37060837  0.47876547     0.40600
H1503       H  0.22712988  0.42080800  0.54425393     0.40200
H1504       H  0.20889036  0.40151287  0.54256416     0.35100
C1505       C  0.10267126  0.39127024  0.67597093    -0.26600
C1506       C  0.11964255  0.40005289  0.68899661    -0.14700
C1507       C  0.12298633  0.40836769  0.72898202     0.35900
C1508       C  0.10959980  0.40766697  0.75411082    -0.26100
C1509       C  0.09265641  0.39840356  0.74159074    -0.15300
C1510       C  0.08926360  0.39022856  0.70192048     0.37000
N1511       N  0.07219194  0.38097857  0.68750211    -0.89600
H1512       H  0.09967269  0.38487009  0.64565920     0.18100
H1513       H  0.11244930  0.41396881  0.78457151     0.18100
N1514       N  0.13978284  0.41778615  0.74511223    -0.88600
H1515       H  0.07170039  0.38616043  0.65801763     0.35500
H1516       H  0.06928391  0.36861840  0.68248700     0.40600
H1517       H  0.14439146  0.40962889  0.75127682     0.40200
H1518       H  0.14762216  0.42684494  0.72218293     0.35100
C1519       C  0.15733098  0.40763800  0.51665889    -0.26600
C1520       C  0.14261687  0.39833265  0.54273630    -0.14700
C1521       C  0.12767861  0.38607149  0.52343757     0.35900
C1522       C  0.12793487  0.38290229  0.47925773    -0.26100
C1523       C  0.14298608  0.39153559  0.45400278    -0.15300
C1524       C  0.15764002  0.40437307  0.47286302     0.37000
N1525       N  0.17290571  0.41420086  0.44759217    -0.89600
H1526       H  0.16889389  0.41730068  0.53061167     0.18100
H1527       H  0.11653578  0.37304862  0.46518425     0.18100
N1528       N  0.11251494  0.37614125  0.54888872    -0.88600
H1529       H  0.18262008  0.41292955  0.46117327     0.35500
H1530       H  0.17616392  0.42679974  0.44949707     0.40600
H1531       H  0.10913548  0.36354503  0.54606904     0.40200
H1532       H  0.10281492  0.37764274  0.53607699     0.35100
C1533       C  0.19192501  0.39136514  0.68588078    -0.26600
C1534       C  0.20672673  0.40389789  0.66479442    -0.14700
C1535       C  0.20713864  0.41855368  0.64977968     0.35900
C1536       C  0.19221903  0.41946865  0.65049661    -0.26100
C1537       C  0.17684705  0.40600334  0.66636369    -0.15300
C1538       C  0.17687928  0.39231549  0.68687700     0.37000
N1539       N  0.16130962  0.37873463  0.70475704    -0.89600
H1540       H  0.19163427  0.38014890  0.69785285     0.18100
H1541       H  0.19233781  0.43013705  0.63521686     0.18100
N1542       N  0.22252899  0.43216176  0.63155168    -0.88600
H1543       H  0.15753253  0.38346600  0.73045258     0.35500
H1544       H  0.16338035  0.36939845  0.71752639     0.40600
H1545       H  0.22558927  0.44287967  0.64921256     0.40200
H1546       H  0.22016627  0.43439242  0.60028436     0.35100
C1547       C  0.33517737  0.34730783  0.77270544    -0.26600
C1548       C  0.32287147  0.34375110  0.80542422    -0.14700
C1549       C  0.32029696  0.33160853  0.83734811     0.35900
C1550       C  0.33088522  0.32461830  0.83788670    -0.26100
C1551       C  0.34450658  0.32965038  0.80811625    -0.15300
C1552       C  0.34609429  0.34061027  0.77394838     0.37000
N1553       N  0.35889876  0.34558673  0.74070416    -0.89600
H1554       H  0.33718858  0.35631322  0.74749281     0.18100
H1555       H  0.32903139  0.31591613  0.86377691     0.18100
N1556       N  0.30734351  0.32633389  0.87040406    -0.88600
H1557       H  0.35774545  0.33478437  0.72671166     0.35500
H1558       H  0.37084298  0.35237643  0.75417329     0.40600
H1559       H  0.29568804  0.32248857  0.85620362     0.40200
H1560       H  0.31020196  0.33635384  0.89063458     0.35100
C1561       C  0.35867578  0.43087533  0.85968372    -0.26600
C1562       C  0.35554309  0.41810209  0.83064967    -0.14700
C1563       C  0.36951260  0.41692534  0.81422722     0.35900
C1564       C  0.38541666  0.42651342  0.83215787    -0.26100
C1565       C  0.38752556  0.43626643  0.86874905    -0.15300
C1566       C  0.37461008  0.44015814  0.87835334     0.37000
N1567       N  0.37739121  0.45320122  0.90741816    -0.89600
H1568       H  0.34841440  0.43288607  0.87034091     0.18100
H1569       H  0.39547054  0.42450882  0.82020057     0.18100
N1570       N  0.36782574  0.40517109  0.78208871    -0.88600
H1571       H  0.37553265  0.46204743  0.89095268     0.35500
H1572       H  0.36814121  0.44798545  0.93212279     0.40600
H1573       H  0.36238240  0.40720179  0.75517022     0.40200
H1574       H  0.36001258  0.39298826  0.79413363     0.35100
C1575       C  0.27920083  0.39370322  0.70794386    -0.26600
C1576       C  0.27230021  0.38299033  0.74404895    -0.14700
C1577       C  0.25470162  0.37549622  0.75341302     0.35900
C1578       C  0.24436749  0.37862346  0.72625315    -0.26100
C1579       C  0.25130846  0.38902095  0.68958511    -0.15300
C1580       C  0.26893734  0.39675503  0.68083763     0.37000
N1581       N  0.27659295  0.40815140  0.64504781    -0.89600
H1582       H  0.29272303  0.39982272  0.70055502     0.18100
H1583       H  0.23085983  0.37275336  0.73359232     0.18100
N1584       N  0.24732516  0.36501320  0.79083115    -0.88600
H1585       H  0.28282739  0.40364293  0.62536481     0.35500
H1586       H  0.28569860  0.41978459  0.65660237     0.40600
H1587       H  0.23780196  0.35324042  0.78107615     0.40200
H1588       H  0.24160845  0.37024036  0.80983081     0.35100
C1589       C  0.31396044  0.32621833  0.20272146    -0.26600
C1590       C  0.32486677  0.34254643  0.21735939    -0.14700
C1591       C  0.33888097  0.34515440  0.24168684     0.35900
C1592       C  0.34293492  0.33230390  0.24588689    -0.26100
C1593       C  0.33324194  0.31664450  0.22646929    -0.15300
C1594       C  0.31791215  0.31327241  0.20753078     0.37000
N1595       N  0.30663098  0.29693106  0.19159101    -0.89600
H1596       H  0.30271500  0.32365649  0.18553475     0.18100
H1597       H  0.35453609  0.33513291  0.26169673     0.18100
N1598       N  0.34968124  0.36113722  0.26016544    -0.88600
H1599       H  0.30511082  0.29814761  0.15891682     0.35500
H1600       H  0.29480064  0.29240590  0.20720184     0.40600
H1601       H  0.36199986  0.36577413  0.24747275     0.40200
H1602       H  0.34990130  0.35928916  0.29317119     0.35100
C1603       C  0.39816941  0.43094627  0.08936514    -0.26600
C1604       C  0.39420465  0.42885624  0.04538250    -0.14700
C1605       C  0.37655182  0.42175176  0.03583484     0.35900
C1606       C  0.36424604  0.41795636  0.06828022    -0.26100
C1607       C  0.36796863  0.41813062  0.11127977    -0.15300
C1608       C  0.38514278  0.42488961  0.12211752     0.37000
N1609       N  0.38934219  0.42499414  0.16602577    -0.89600
H1610       H  0.41111302  0.43519808  0.09837356     0.18100
H1611       H  0.35104914  0.41222202  0.05933248     0.18100
N1612       N  0.37035190  0.41562086  0.99411702    -0.88600
H1613       H  0.39791837  0.43739765  0.17392736     0.35500
H1614       H  0.39552841  0.41805768  0.16885197     0.40600
H1615       H  0.36234577  0.40258943  0.99641108     0.40200
H1616       H  0.36311887  0.42089155  0.98409990     0.35100
C1617       C  0.29277510  0.39761700  0.29068501    -0.26600
C1618       C  0.28833700  0.39094704  0.24951699    -0.14700
C1619       C  0.27186361  0.38617250  0.23561899     0.35900
C1620       C  0.25992974  0.38695742  0.26361522    -0.26100
C1621       C  0.26385779  0.39244284  0.30601579    -0.15300
C1622       C  0.28078750  0.39839942  0.31889737     0.37000
N1623       N  0.28595663  0.40519090  0.36060699    -0.89600
H1624       H  0.30547605  0.40177556  0.30164092     0.18100
H1625       H  0.24730835  0.38277311  0.25206806     0.18100
N1626       N  0.26712790  0.38053984  0.19279555    -0.88600
H1627       H  0.29611336  0.41747319  0.35683513     0.35500
H1628       H  0.29033468  0.39810981  0.37646737     0.40600
H1629       H  0.25651933  0.36845414  0.19451781     0.40200
H1630       H  0.26354776  0.38845629  0.17791256     0.35100
C1631       C  0.30582367  0.39095002  0.02140784    -0.26600
C1632       C  0.30496917  0.37700669  0.04256198    -0.14700
C1633       C  0.30014113  0.36229103  0.01920955     0.35900
C1634       C  0.29683039  0.36194850  0.97531991    -0.26100
C1635       C  0.29864585  0.37620980  0.95360551    -0.15300
C1636       C  0.30290308  0.39075385  0.97731753     0.37000
N1637       N  0.30484925  0.40557594  0.95662866    -0.89600
H1638       H  0.30951441  0.40238563  0.03874108     0.18100
H1639       H  0.29367672  0.35067971  0.95775723     0.18100
N1640       N  0.29881594  0.34770681  0.03967963    -0.88600
H1641       H  0.31726286  0.41533290  0.96105122     0.35500
H1642       H  0.29651215  0.40876716  0.97179709     0.40600
H1643       H  0.30714458  0.34471471  0.02361811     0.40200
H1644       H  0.28644288  0.33775036  0.03610441     0.35100
C1645       C  0.58420205  0.79773727  0.33707722    -0.26600
C1646       C  0.59932854  0.81326407  0.33268774    -0.14700
C1647       C  0.61487647  0.81340189  0.32915152     0.35900
C1648       C  0.61515461  0.79822497  0.33240261    -0.26100
C1649       C  0.60009537  0.78286891  0.34010897    -0.15300
C1650       C  0.58448948  0.78263849  0.34120181     0.37000
N1651       N  0.56895595  0.76716468  0.34909052    -0.89600
H1652       H  0.57219432  0.79746113  0.34126765     0.18100
H1653       H  0.62726352  0.79860756  0.33212777     0.18100
N1654       N  0.63049665  0.82906668  0.32561813    -0.88600
H1655       H  0.56312600  0.76840269  0.37700882     0.35500
H1656       H  0.56096454  0.76530408  0.32363037     0.40600
H1657       H  0.63704296  0.82888037  0.29792128     0.40200
H1658       H  0.63781722  0.82995748  0.35195651     0.35100
C1659       C  0.60158678  0.75598691  0.53306113    -0.26600
C1660       C  0.59159738  0.73940996  0.54883319    -0.14700
C1661       C  0.58581466  0.72618960  0.51959303     0.35900
C1662       C  0.58905942  0.72985432  0.47513924    -0.26100
C1663       C  0.59792429  0.74658686  0.45939584    -0.15300
C1664       C  0.60477593  0.75966023  0.48909699     0.37000
N1665       N  0.61504242  0.77677670  0.47482662    -0.89600
H1666       H  0.60658689  0.76634019  0.55508994     0.18100
H1667       H  0.58395736  0.71959912  0.45285531     0.18100
N1668       N  0.57597632  0.70914573  0.53457214    -0.88600
H1669       H  0.60931592  0.78350429  0.48611102     0.35500
H1670       H  0.62691142  0.78170304  0.48869619     0.40600
H1671       H  0.56419982  0.70370444  0.51998916     0.40200
H1672       H  0.58221154  0.70276550  0.52443698     0.35100
C1673       C  0.58066517  0.82289727  0.51919364    -0.26600
C1674       C  0.58942359  0.83693271  0.54514986    -0.14700
C1675       C  0.59779804  0.85313078  0.52511695     0.35900
C1676       C  0.59843933  0.85461792  0.47972645    -0.26100
C1677       C  0.59065815  0.84033690  0.45412164    -0.15300
C1678       C  0.58101867  0.82439485  0.47441052     0.37000
N1679       N  0.57187163  0.80960677  0.44922541    -0.89600
H1680       H  0.57364513  0.81048814  0.53388143     0.18100
H1681       H  0.60569572  0.86687306  0.46430819     0.18100
N1682       N  0.60626665  0.86795111  0.55039701    -0.88600
H1683       H  0.56560013  0.79885214  0.46878121     0.35500
H1684       H  0.56246602  0.81070619  0.43323850     0.40600
H1685       H  0.59686539  0.86908971  0.56745473     0.40200
H1686       H  0.61256092  0.87865796  0.53065354     0.35100
C1687       C  0.59867888  0.79602727  0.67213419    -0.26600
C1688       C  0.58498617  0.79813937  0.66084640    -0.14700
C1689       C  0.56887077  0.78370069  0.65604199     0.35900
C1690       C  0.56706172  0.76754306  0.65990759    -0.26100
C1691       C  0.58103821  0.76542237  0.66819916    -0.15300
C1692       C  0.59692076  0.77994020  0.67514597     0.37000
N1693       N  0.61179684  0.77873186  0.68199428    -0.89600
H1694       H  0.61114169  0.80698430  0.67542954     0.18100
H1695       H  0.55496490  0.75658928  0.65309841     0.18100
N1696       N  0.55446740  0.78549374  0.64626548    -0.88600
H1697       H  0.60945347  0.77096770  0.70884167     0.35500
H1698       H  0.61391416  0.77307766  0.65540413     0.40600
H1699       H  0.55651761  0.79085785  0.61551698     0.40200
H1700       H  0.54347154  0.77374207  0.64503608     0.35100
C1701       C  0.57611904  0.68257807  0.70853779    -0.26600
C1702       C  0.58202716  0.68653565  0.75049620    -0.14700
C1703       C  0.58743592  0.70317849  0.76417134     0.35900
C1704       C  0.58688963  0.71506817  0.73627584    -0.26100
C1705       C  0.58165364  0.71133173  0.69364281    -0.15300
C1706       C  0.57613831  0.69463086  0.68012165     0.37000
N1707       N  0.57023977  0.68929632  0.63781007    -0.89600
H1708       H  0.57186846  0.67003934  0.69706794     0.18100
H1709       H  0.59110415  0.72757906  0.74791449     0.18100
N1710       N  0.59344956  0.70847202  0.80644258    -0.88600
H1711       H  0.58031409  0.69587110  0.61582172     0.35500
H1712       H  0.56051249  0.69189541  0.63168713     0.40600
H1713       H  0.60451359  0.70787691  0.81028941     0.40200
H1714       H  0.58412709  0.70033240  0.82870277     0.35100
C1715       C  0.64249498  0.65508467  0.82075194    -0.26600
C1716       C  0.62840017  0.64757540  0.79415311    -0.14700
C1717       C  0.62827816  0.63702182  0.76133945     0.35900
C1718       C  0.64171915  0.63361821  0.75715831    -0.26100
C1719       C  0.65528063  0.64032372  0.78559243    -0.15300
C1720       C  0.65573773  0.65145194  0.81711921     0.37000
N1721       N  0.66901461  0.65825747  0.84751785    -0.89600
H1722       H  0.64288632  0.66321648  0.84620221     0.18100
H1723       H  0.64101007  0.62489824  0.73299685     0.18100
N1724       N  0.61418149  0.62903507  0.73354002    -0.88600
H1725       H  0.66347330  0.65433318  0.87821591     0.35500
H1726       H  0.67489984  0.67133530  0.84570296     0.40600
H1727       H  0.60890433  0.61604899  0.73705774     0.40200
H1728       H  0.61881180  0.63242237  0.70194379     0.35100
C1729       C  0.60018133  0.71546793  0.32777453    -0.26600
C1730       C  0.60209707  0.73054790  0.31061857    -0.14700
C1731       C  0.60362607  0.73282050  0.26546114     0.35900
C1732       C  0.60272442  0.72000043  0.23905634    -0.26100
C1733       C  0.60006481  0.70472399  0.25655688    -0.15300
C1734       C  0.59906458  0.70266156  0.30143116     0.37000
N1735       N  0.59714034  0.68761470  0.32063564    -0.89600
H1736       H  0.59926488  0.71333413  0.36212583     0.18100
H1737       H  0.60370275  0.72187274  0.20457899     0.18100
N1738       N  0.60595273  0.74798440  0.24600464    -0.88600
H1739       H  0.60745234  0.69092048  0.34034878     0.35500
H1740       H  0.58606879  0.68219093  0.33998451     0.40600
H1741       H  0.59590794  0.74484302  0.22546952     0.40200
H1742       H  0.61723708  0.75336721  0.22748505     0.35100
C1743       C  0.57986087  0.66822305  0.02606075    -0.26600
C1744       C  0.59545101  0.67332160  0.04544556    -0.14700
C1745       C  0.60971011  0.67664180  0.01925610     0.35900
C1746       C  0.60785324  0.67381865  0.97499859    -0.26100
C1747       C  0.59196227  0.66761085  0.95611593    -0.15300
C1748       C  0.57797134  0.66527357  0.98194963     0.37000
N1749       N  0.56158908  0.65919692  0.96405365    -0.89600
H1750       H  0.56877257  0.66567257  0.04552189     0.18100
H1751       H  0.61880786  0.67588418  0.95566622     0.18100
N1752       N  0.62594765  0.68218991  0.03753565    -0.88600
H1753       H  0.55769120  0.66793327  0.97017626     0.35500
H1754       H  0.55302489  0.64793663  0.97989392     0.40600
H1755       H  0.63472785  0.69358929  0.02267806     0.40200
H1756       H  0.62968349  0.67338503  0.03054906     0.35100
C1757       C  0.62212510  0.63323355  0.21108328    -0.26600
C1758       C  0.62852760  0.64806546  0.18624761    -0.14700
C1759       C  0.64305808  0.65292027  0.15942490     0.35900
C1760       C  0.65027261  0.64259807  0.15667171    -0.26100
C1761       C  0.64305211  0.62706708  0.17883143    -0.15300
C1762       C  0.62900826  0.62255111  0.20728622     0.37000
N1763       N  0.62149150  0.60705599  0.23165123    -0.89600
H1764       H  0.61096086  0.62936745  0.23161585     0.18100
H1765       H  0.66114221  0.64641628  0.13507430     0.18100
N1766       N  0.65070646  0.66812832  0.13416532    -0.88600
H1767       H  0.61523150  0.59723995  0.21032003     0.35500
H1768       H  0.61208713  0.60626227  0.25297853     0.40600
H1769       H  0.65337060  0.67813663  0.15429909     0.40200
H1770       H  0.64218688  0.66732683  0.11112763     0.35100
C1771       C  0.59046147  0.87617738  0.72751512    -0.26600
C1772       C  0.60372519  0.88125695  0.75639845    -0.14700
C1773       C  0.61348887  0.87319506  0.75537156     0.35900
C1774       C  0.60991280  0.86043340  0.72565313    -0.26100
C1775       C  0.59691047  0.85567249  0.69615488    -0.15300
C1776       C  0.58703250  0.86365484  0.69752088     0.37000
N1777       N  0.57303853  0.85892450  0.66988070    -0.89600
H1778       H  0.58270572  0.88207338  0.72795588     0.18100
H1779       H  0.61752651  0.85438563  0.72522997     0.18100
N1780       N  0.62687264  0.87769503  0.78485505    -0.88600
H1781       H  0.56467484  0.84603875  0.67371733     0.35500
H1782       H  0.57761795  0.86150881  0.63812265     0.40600
H1783       H  0.62418289  0.86695421  0.80272198     0.40200
H1784       H  0.63816119  0.88154062  0.76715412     0.35100
C1785       C  0.62648168  0.97282722  0.78434919    -0.26600
C1786       C  0.63723178  0.96739215  0.80101081    -0.14700
C1787       C  0.65245217  0.97941931  0.81995328     0.35900
C1788       C  0.65606221  0.99619479  0.82372011    -0.26100
C1789       C  0.64488844  0.00139541  0.80879658    -0.15300
C1790       C  0.63003315  0.98949361  0.78845559     0.37000
N1791       N  0.61798625  0.99397759  0.77382744    -0.89600
H1792       H  0.61457773  0.96383658  0.77041938     0.18100
H1793       H  0.66752192  0.00518106  0.83936374     0.18100
N1794       N  0.66391558  0.97447631  0.83674125    -0.88600
H1795       H  0.60636011  0.98627507  0.78988552     0.35500
H1796       H  0.61633579  0.99148135  0.74111138     0.40600
H1797       H  0.66868463  0.97075106  0.81089469     0.40200
H1798       H  0.67434772  0.98469889  0.85029456     0.35100
C1799       C  0.60222428  0.88228978  0.24263509    -0.26600
C1800       C  0.59080071  0.88786524  0.25402238    -0.14700
C1801       C  0.58093191  0.88135646  0.29234626     0.35900
C1802       C  0.58308232  0.87012609  0.31874530    -0.26100
C1803       C  0.59448460  0.86451806  0.30748230    -0.15300
C1804       C  0.60402956  0.87059991  0.26845463     0.37000
N1805       N  0.61574666  0.86516390  0.25539738    -0.89600
H1806       H  0.60981688  0.88709258  0.21325563     0.18100
H1807       H  0.57551628  0.86553448  0.34820506     0.18100
N1808       N  0.56888210  0.88619993  0.30591107    -0.88600
H1809       H  0.62541591  0.86961727  0.27766987     0.35500
H1810       H  0.62155219  0.87057816  0.22576748     0.40600
H1811       H  0.55964875  0.88255275  0.28267029     0.40200
H1812       H  0.57519635  0.89926553  0.30825694     0.35100
C1813       C  0.59279002  0.89590674  0.98795394    -0.26600
C1814       C  0.60898291  0.90645097  0.96908500    -0.14700
C1815       C  0.62189952  0.91829657  0.99504917     0.35900
C1816       C  0.61813295  0.92009947  0.03790422    -0.26100
C1817       C  0.60159630  0.91048984  0.05562937    -0.15300
C1818       C  0.58897206  0.89787442  0.03066656     0.37000
N1819       N  0.57202827  0.88753968  0.04770662    -0.89600
H1820       H  0.58265037  0.88677907  0.96865911     0.18100
H1821       H  0.62807839  0.92974023  0.05665891     0.18100
N1822       N  0.63859626  0.92934322  0.97745414    -0.88600
H1823       H  0.56895617  0.87499941  0.04559104     0.35500
H1824       H  0.56375285  0.88929111  0.02848760     0.40600
H1825       H  0.64729430  0.92782250  0.99553115     0.40200
H1826       H  0.64117464  0.94168891  0.98087839     0.35100
C1827       C  0.63893914  0.98318961  0.16870509    -0.26600
C1828       C  0.62614101  0.97417677  0.20004641    -0.14700
C1829       C  0.62447783  0.98300984  0.23492431     0.35900
C1830       C  0.63493724  0.00060658  0.23643940    -0.26100
C1831       C  0.64709960  0.00971936  0.20366043    -0.15300
C1832       C  0.64921150  0.00065828  0.16978253     0.37000
N1833       N  0.66087806  0.00880224  0.13436352    -0.89600
H1834       H  0.64049852  0.97671089  0.14164174     0.18100
H1835       H  0.63303803  0.00723549  0.26261284     0.18100
N1836       N  0.61184112  0.97432888  0.26811545    -0.88600
H1837       H  0.67316126  0.01568569  0.14589815     0.35500
H1838       H  0.65763070  0.01685612  0.11882833     0.40600
H1839       H  0.60377982  0.97937577  0.26924983     0.40200
H1840       H  0.61797712  0.97669269  0.29730660     0.35100
C1841       C  0.50204582  0.99589249  0.98189978    -0.26600
C1842       C  0.50638814  0.98864634  0.01601931    -0.14700
C1843       C  0.49505480  0.98286216  0.05260061     0.35900
C1844       C  0.47958908  0.98323759  0.05246199    -0.26100
C1845       C  0.47512543  0.98988641  0.01774999    -0.15300
C1846       C  0.48685250  0.99682461  0.98276070     0.37000
N1847       N  0.48359273  0.00535065  0.94884396    -0.89600
H1848       H  0.51051047  0.00082054  0.95404464     0.18100
H1849       H  0.47096319  0.97849205  0.08010689     0.18100
N1850       N  0.49939272  0.97717818  0.09065118    -0.88600
H1851       H  0.47281363  0.99645601  0.93316920     0.35500
H1852       H  0.49361244  0.01031064  0.92614979     0.40600
H1853       H  0.48981897  0.97337475  0.11432943     0.40200
H1854       H  0.51023727  0.98744738  0.10276865     0.35100
C1855       C  0.57612579  0.01782928  0.92181802    -0.26600
C1856       C  0.58007746  0.02072551  0.96578400    -0.14700
C1857       C  0.59742225  0.03247499  0.97454791     0.35900
C1858       C  0.60948922  0.04098073  0.94135848    -0.26100
C1859       C  0.60599948  0.03661630  0.89852271    -0.15300
C1860       C  0.58887260  0.02501152  0.88845070     0.37000
N1861       N  0.58404354  0.01963206  0.84534625    -0.89600
H1862       H  0.56343596  0.00827824  0.91346787     0.18100
H1863       H  0.62253087  0.04939615  0.95006722     0.18100
N1864       N  0.60375668  0.03414570  0.01685208    -0.88600
H1865       H  0.59427478  0.02611200  0.82376725     0.35500
H1866       H  0.57497568  0.02290022  0.83700909     0.40600
H1867       H  0.61276972  0.03024712  0.01678398     0.40200
H1868       H  0.60990248  0.04685006  0.02463098     0.35100
C1869       C  0.60423817  0.03635905  0.20137201    -0.26600
C1870       C  0.61632991  0.05184273  0.18328454    -0.14700
C1871       C  0.61124014  0.05944916  0.15245740     0.35900
C1872       C  0.59513851  0.05027931  0.13481858    -0.26100
C1873       C  0.58435176  0.03316749  0.14562833    -0.15300
C1874       C  0.58823916  0.02693055  0.18308213     0.37000
N1875       N  0.57658045  0.01086023  0.20178131    -0.89600
H1876       H  0.60781374  0.03066371  0.22655391     0.18100
H1877       H  0.59197846  0.05613309  0.10929636     0.18100
N1878       N  0.62291411  0.07606233  0.13667979    -0.88600
H1879       H  0.58241989  0.00354671  0.20170731     0.35500
H1880       H  0.57411045  0.01259291  0.23367132     0.40600
H1881       H  0.61729903  0.08345831  0.14149670     0.40200
H1882       H  0.62474224  0.07547441  0.10367677     0.35100
C1883       C  0.60203209  0.96127429  0.89435689    -0.26600
C1884       C  0.59011785  0.94407137  0.89286045    -0.14700
C1885       C  0.57472727  0.93742154  0.91632387     0.35900
C1886       C  0.57186718  0.94801765  0.94291919    -0.26100
C1887       C  0.58438750  0.96501445  0.94676471    -0.15300
C1888       C  0.59944360  0.97172372  0.92165870     0.37000
N1889       N  0.61258241  0.98884401  0.92591552    -0.89600
H1890       H  0.61404994  0.96639169  0.87663957     0.18100
H1891       H  0.56006938  0.94286832  0.96153515     0.18100
N1892       N  0.56257130  0.91985698  0.91539084    -0.88600
H1893       H  0.61512167  0.99474294  0.89573892     0.35500
H1894       H  0.62358614  0.98894489  0.93542873     0.40600
H1895       H  0.55103928  0.91850942  0.90571286     0.40200
H1896       H  0.56078252  0.91497297  0.94665983     0.35100
C1897       C  0.56327420  0.97093102  0.12649646    -0.26600
C1898       C  0.55177840  0.96622925  0.09238220    -0.14700
C1899       C  0.54323567  0.94879593  0.08214518     0.35900
C1900       C  0.54712790  0.93752081  0.10369566    -0.26100
C1901       C  0.55901299  0.94287866  0.13660870    -0.15300
C1902       C  0.56650049  0.95965687  0.14892728     0.37000
N1903       N  0.57923571  0.96595071  0.18088548    -0.89600
H1904       H  0.57195679  0.98389123  0.13288856     0.18100
H1905       H  0.54153879  0.92471222  0.09292061     0.18100
N1906       N  0.53187207  0.94241681  0.04724149    -0.88600
H1907       H  0.57555453  0.97154738  0.20469291     0.35500
H1908       H  0.59068142  0.97520411  0.16673157     0.40600
H1909       H  0.53827028  0.94879218  0.01886975     0.40200
H1910       H  0.52180619  0.94452802  0.05333150     0.35100
C1911       C  0.49356981  0.49403560  0.03174270    -0.26600
C1912       C  0.50193378  0.50158786  0.99230400    -0.14700
C1913       C  0.49350843  0.49347100  0.95450982     0.35900
C1914       C  0.47761981  0.47820055  0.95666861    -0.26100
C1915       C  0.46929826  0.47058584  0.99604049    -0.15300
C1916       C  0.47745321  0.47895393  0.03386523     0.37000
N1917       N  0.46963590  0.47193729  0.07481901    -0.89600
H1918       H  0.49952200  0.49994159  0.06128094     0.18100
H1919       H  0.47171743  0.47226949  0.92710873     0.18100
N1920       N  0.50128954  0.50043235  0.91349038    -0.88600
H1921       H  0.46790663  0.48090353  0.09109210     0.35500
H1922       H  0.47802533  0.46970081  0.09214446     0.40600
H1923       H  0.49290802  0.50275022  0.89631756     0.40200
H1924       H  0.50291036  0.49143225  0.89712060     0.35100
C1925       C  0.53834581  0.58219667  0.93807751    -0.26600
C1926       C  0.54485903  0.57148250  0.92921535    -0.14700
C1927       C  0.55076437  0.57230429  0.88639407     0.35900
C1928       C  0.55621449  0.58719359  0.86124285    -0.26100
C1929       C  0.55391780  0.60042438  0.87610237    -0.15300
C1930       C  0.54345506  0.59705702  0.91347919     0.37000
N1931       N  0.53857874  0.60892187  0.92762796    -0.89600
H1932       H  0.52960625  0.57926889  0.96487866     0.18100
H1933       H  0.56285409  0.58870192  0.83084415     0.18100
N1934       N  0.55234774  0.55860186  0.86983899    -0.88600
H1935       H  0.54947329  0.61939227  0.93877204     0.35500
H1936       H  0.53011357  0.60406710  0.95397039     0.40600
H1937       H  0.55685869  0.56113618  0.83801650     0.40200
H1938       H  0.54014758  0.54809594  0.86952579     0.35100
C1939       C  0.54038382  0.60074784  0.09893981    -0.26600
C1940       C  0.54482509  0.58863717  0.11068533    -0.14700
C1941       C  0.55129084  0.58982861  0.15244970     0.35900
C1942       C  0.55699374  0.60470685  0.17541069    -0.26100
C1943       C  0.55555355  0.61812567  0.15898986    -0.15300
C1944       C  0.54560470  0.61536563  0.12275829     0.37000
N1945       N  0.54170756  0.62781774  0.10832420    -0.89600
H1946       H  0.53368673  0.59949160  0.06979160     0.18100
H1947       H  0.56360956  0.60614586  0.20492915     0.18100
N1948       N  0.55232893  0.57630843  0.17205323    -0.88600
H1949       H  0.52849103  0.62222872  0.10732737     0.35500
H1950       H  0.54669364  0.63155369  0.07710464     0.40600
H1951       H  0.54515729  0.57293639  0.20077515     0.40200
H1952       H  0.56500749  0.58058514  0.17933432     0.35100
C1953       C  0.62067850  0.57461143  0.84206370    -0.26600
C1954       C  0.63590386  0.57852952  0.86182833    -0.14700
C1955       C  0.63573649  0.57636958  0.90668182     0.35900
C1956       C  0.62096608  0.57220312  0.93104869    -0.26100
C1957       C  0.60617842  0.56997811  0.91165058    -0.15300
C1958       C  0.60581658  0.57016425  0.86644240     0.37000
N1959       N  0.59047295  0.56591885  0.84500668    -0.89600
H1960       H  0.62049676  0.57586780  0.80756629     0.18100
H1961       H  0.62146117  0.57170648  0.96560856     0.18100
N1962       N  0.65080952  0.57952186  0.92808834    -0.88600
H1963       H  0.58763850  0.55578658  0.82513069     0.35500
H1964       H  0.59269540  0.57614776  0.82558031     0.40600
H1965       H  0.64812747  0.56867186  0.94539951     0.40200
H1966       H  0.65381051  0.58911936  0.94993801     0.35100
C1967       C  0.58339047  0.56709810  0.08558826    -0.26600
C1968       C  0.57367049  0.55116137  0.06616504    -0.14700
C1969       C  0.58104609  0.54065656  0.06713048     0.35900
C1970       C  0.59754811  0.54659977  0.08491543    -0.26100
C1971       C  0.60696707  0.56293302  0.10162461    -0.15300
C1972       C  0.59926276  0.57278471  0.10306640     0.37000
N1973       N  0.60818108  0.58945363  0.11965526    -0.89600
H1974       H  0.58010409  0.57677828  0.08245613     0.18100
H1975       H  0.60349657  0.53894913  0.08292738     0.18100
N1976       N  0.57268785  0.52482977  0.04608455    -0.88600
H1977       H  0.60049592  0.59036840  0.14368125     0.35500
H1978       H  0.60988967  0.59795265  0.09503134     0.40600
H1979       H  0.56127499  0.51719096  0.06297987     0.40200
H1980       H  0.57991039  0.51888656  0.04802058     0.35100
loop_ 
_geom_bond_atom_site_label_1 
_geom_bond_atom_site_label_2 
_geom_bond_distance 
_geom_bond_site_symmetry_2 
_ccdc_geom_bond_type 
C1            C3   1.529   1_554  S
C1            C5   1.538       .  S
C1            C4   1.577       .  S
C1         C1968   1.580       .  S
C2            C6   1.545       .  S
C2            C8   1.561   1_556  S
C2            C7   1.585       .  S
C2         C1926   1.575       .  S
C3           C11   1.383       .  A
C3            C6   1.378       .  A
C4           C15   1.404       .  A
C4            C7   1.440   1_554  A
C5           C19   1.375       .  A
C5            C8   1.379       .  A
C6            C9   1.394       .  A
C7           C13   1.395       .  A
C8           C16   1.396       .  A
C9           N10   1.357       .  A
C9           H22   1.077       .  S
N10          C11   1.347       .  A
N10        C1957   1.447       .  S
C11          H12   1.080       .  S
C13          N14   1.367       .  A
C13          H23   1.082       .  S
N14          C15   1.372   1_556  A
N14        C1912   1.477       .  S
C15          H21   1.082       .  S
C16          N17   1.368       .  A
C16          H18   1.075       .  S
N17          C19   1.356       .  A
N17        C1940   1.464       .  S
C19          H20   1.074       .  S
C24          C26   1.545   1_556  S
C24          C28   1.523   1_545  S
C24          C27   1.573   1_545  S
C24        C1856   1.563       .  S
C25          C29   1.544       .  S
C25          C31   1.526       .  S
C25          C30   1.573       .  S
C25        C1898   1.566       .  S
C26          C34   1.379       .  A
C26          C29   1.386   1_545  A
C27          C38   1.400       .  A
C27          C30   1.438   1_556  A
C28          C42   1.380       .  A
C28          C31   1.377   1_556  A
C29          C32   1.376   1_565  A
C30          C36   1.395       .  A
C31          C39   1.381       .  A
C32          N33   1.360       .  A
C32          H45   1.076   1_545  S
N33          C34   1.367       .  A
N33        C1873   1.461       .  S
C34          H35   1.079       .  S
C36          N37   1.367       .  A
C36          H46   1.077       .  S
N37          C38   1.367   1_554  A
N37        C1842   1.482       .  S
C38          H44   1.082   1_565  S
C39          N40   1.347   1_554  A
C39          H41   1.080       .  S
N40          C42   1.346       .  A
N40        C1887   1.429       .  S
C42          H43   1.081       .  S
In47         O49   2.284       .  S
In47         O50   2.239       .  S
In47         O58   2.310       .  S
In47         O52   2.264       .  S
In47         O54   2.290       .  S
In47         O55   2.230       .  S
In47         O56   2.283       .  S
In47         O59   2.243       .  S
C48          O54   1.258       .  A
C48          O56   1.264       .  A
C48        C1901   1.499       .  S
O49          C57   1.263       .  A
O50          C57   1.259       .  A
C51          O58   1.266       .  A
C51          O52   1.256       .  A
C51        C1800   1.503       .  S
C53          O55   1.264       .  A
C53          O59   1.267       .  A
C53        C1817   1.487       .  S
C57        C1828   1.493       .  S
In60         O62   2.230       .  S
In60         O63   2.247       .  S
In60         O71   2.256       .  S
In60         O65   2.242       .  S
In60         O67   2.154       .  S
In60         O68   2.259       .  S
In60         O69   2.264       .  S
In60         O72   2.237       .  S
C61          O67   1.257       .  A
C61          O69   1.274       .  A
C61        C1884   1.454       .  S
O62          C70   1.265       .  A
O63          C70   1.270       .  A
C64          O71   1.267       .  A
C64          O65   1.266       .  A
C64        C1772   1.493       .  S
C66          O68   1.271       .  A
C66          O72   1.264       .  A
C66        C1786   1.498       .  S
C70        C1814   1.489       .  S
In73         O75   2.239       .  S
In73         O76   2.240       .  S
In73         O84   2.283       .  S
In73         O78   2.276       .  S
In73         O80   2.253       .  S
In73         O81   2.252       .  S
In73         O82   2.268       .  S
In73         O85   2.261       .  S
C74          O80   1.258       .  A
C74          O82   1.261       .  A
C74        C1943   1.486       .  S
O75          C83   1.265       .  A
O76          C83   1.264       .  A
C77          O84   1.255       .  A
C77          O78   1.258       .  A
C77        C1733   1.491       .  S
C79          O81   1.258       .  A
C79          O85   1.262       .  A
C79        C1758   1.487       .  S
C83        C1744   1.485       .  S
In86         O88   2.273       .  S
In86         O89   2.236       .  S
In86         O97   2.286       .  S
In86         O91   2.338       .  S
In86         O93   2.308       .  S
In86         O94   2.244       .  S
In86         O95   2.312       .  S
In86         O98   2.250       .  S
C87          O93   1.262       .  A
C87          O95   1.260       .  A
C87        C1929   1.519       .  S
O88          C96   1.266       .  A
O89          C96   1.261       .  A
C90          O97   1.255       .  A
C90          O91   1.267       .  A
C90        C1702   1.521       .  S
C92          O94   1.263       .  A
C92          O98   1.262       .  A
C92        C1747   1.487       .  S
C96        C1716   1.492       .  S
C99         N100   1.368       .  A
C99         N104   1.364       .  A
C99        C1775   1.490       .  S
N100        C101   1.364       .  A
C101        N102   1.360       .  A
C101       C1688   1.494       .  S
N102        C103   1.363       .  A
C103        N104   1.360       .  A
C103       C1674   1.503       .  S
C105        N106   1.380       .  A
C105        N110   1.373       .  A
C105       C1705   1.524       .  S
N106        C107   1.373       .  A
C107        N108   1.347       .  A
C107       C1691   1.492       .  S
N108        C109   1.350       .  A
C109        N110   1.365       .  A
C109       C1660   1.490       .  S
C111        N112   1.373       .  A
C111        N116   1.373       .  A
C111       C1803   1.507       .  S
N112        C113   1.365       .  A
C113        N114   1.351       .  A
C113       C1677   1.492       .  S
N114        C115   1.348       .  A
C115        N116   1.365       .  A
C115       C1646   1.482       .  S
C117        N118   1.368       .  A
C117        N122   1.364       .  A
C117       C1730   1.504       .  S
N118        C119   1.364       .  A
C119        N120   1.359       .  A
C119       C1649   1.486       .  S
N120        C121   1.360       .  A
C121        N122   1.357       .  A
C121       C1663   1.493       .  S
In123       O125   2.273       .  S
In123       O126   2.274       .  S
In123       O134   2.306       .  S
In123       O128   2.258       .  S
In123       O130   2.273       .  S
In123       O131   2.272       .  S
In123       O132   2.302       .  S
In123       O135   2.255       .  S
C124        O130   1.259       .  A
C124        O132   1.259       .  A
C124       C1607   1.494       .  S
O125        C133   1.266       .  A
O126        C133   1.264       .  A
C127        O134   1.265       .  A
C127        O128   1.258       .  A
C127       C1618   1.501       .  S
C129        O131   1.263       .  A
C129        O135   1.259       .  A
C129       C1632   1.490       .  S
C133       C1590   1.504       .  S
In136       O138   2.243       .  S
In136       O139   2.251       .  S
In136       O147   2.240       .  S
In136       O141   2.289       .  S
In136       O143   2.249       .  S
In136       O144   2.243       .  S
In136       O145   2.244       .  S
In136       O148   2.287       .  S
C137        O143   1.259       .  A
C137        O145   1.258       .  A
C137       C1562   1.481       .  S
O138        C146   1.263       .  A
O139        C146   1.264       .  A
C140        O147   1.253       .  A
C140        O141   1.260       .  A
C140       C1576   1.486       .  S
C142        O144   1.255       .  A
C142        O148   1.263       .  A
C142       C1548   1.493       .  S
C146       C1635   1.488       .  S
C149        N150   1.372       .  A
C149        N154   1.366       .  A
C149       C1506   1.505       .  S
N150        C151   1.366       .  A
C151        N152   1.353       .  A
C151       C1520   1.494       .  S
N152        C153   1.352       .  A
C153        N154   1.359       .  A
C153       C1537   1.476       .  S
C155        N156   1.364       .  A
C155        N160   1.365       .  A
C155       C1579   1.482       .  S
N156        C157   1.358       .  A
C157        N158   1.355       .  A
C157       C1492   1.503       .  S
N158        C159   1.356       .  A
C159        N160   1.360       .  A
C159       C1534   1.479       .  S
C161        N162   1.365       .  A
C161        N166   1.366       .  A
C161       C1464   1.496       .  S
N162        C163   1.360       .  A
C163        N164   1.359       .  A
C163       C1523   1.491       .  S
N164        C165   1.360       .  A
C165        N166   1.362       .  A
C165       C1481   1.482       .  S
C167        N168   1.373       .  A
C167        N172   1.372       .  A
C167       C1621   1.510       .  S
N168        C169   1.363       .  A
C169        N170   1.347       .  A
C169       C1478   1.481       .  S
N170        C171   1.351       .  A
C171        N172   1.364       .  A
C171       C1495   1.484       .  S
In173       O175   2.232       .  S
In173       O176   2.277       .  S
In173       O184   2.284       .  S
In173       O178   2.255       .  S
In173       O180   2.241       .  S
In173       O181   2.269       .  S
In173       O182   2.265       .  S
In173       O185   2.245       .  S
C174        O180   1.256       .  A
C174        O182   1.257       .  A
C174       C1436   1.475       .  S
O175        C183   1.263       .  A
O176        C183   1.268       .  A
C177        O184   1.261       .  A
C177        O178   1.259       .  A
C177       C1467   1.494       .  S
C179        O181   1.266       .  A
C179        O185   1.262       .  A
C179       C1422   1.496       .  S
C183       C1450   1.493       .  S
In186       O188   2.265       .  S
In186       O189   2.262       .  S
In186       O197   2.276       .  S
In186       O191   2.293       .  S
In186       O193   2.276       .  S
In186       O194   2.259       .  S
In186       O195   2.283       .  S
In186       O198   2.249       .  S
C187        O193   1.257       .  A
C187        O195   1.261       .  A
C187       C1408   1.485       .  S
O188        C196   1.263       .  A
O189        C196   1.262       .  A
C190        O197   1.256       .  A
C190        O191   1.259       .  A
C190       C1509   1.495       .  S
C192        O194   1.263       .  A
C192        O198   1.263       .  A
C192       C1453   1.491       .  S
C196       C1394   1.496       .  S
C199        C201   1.550   1_554  S
C199        C203   1.528       .  S
C199        C202   1.576       .  S
C199       C1380   1.562       .  S
C200        C204   1.528       .  S
C200        C206   1.528       .  S
C200        C205   1.576       .  S
C200       C1411   1.554   1_655  S
C201        C209   1.387       .  A
C201        C204   1.374       .  A
C202        C213   1.392       .  A
C202        C205   1.447   1_554  A
C203        C217   1.384       .  A
C203        C206   1.375   1_554  A
C204        C207   1.374       .  A
C205        C211   1.397       .  A
C206        C214   1.389   1_656  A
C207        N208   1.360       .  A
C207        H220   1.080       .  S
N208        C209   1.365       .  A
N208       C1366   1.457       .  S
C209        H210   1.077       .  S
C211        N212   1.364       .  A
C211        H221   1.082   1_655  S
N212        C213   1.361   1_556  A
N212       C1352   1.462       .  S
C213        H219   1.082       .  S
C214        N215   1.352       .  A
C214        H216   1.082   1_554  S
N215        C217   1.350   1_455  A
N215       C1439   1.446       .  S
C217        H218   1.077       .  S
In222       O224   2.285       .  S
In222       O225   2.229       .  S
In222       O233   2.310       .  S
In222       O227   2.259       .  S
In222       O229   2.256       .  S
In222       O230   2.243       .  S
In222       O231   2.322       .  S
In222       O234   2.261       .  S
C223        O229   1.258       .  A
C223        O231   1.261       .  A
C223       C1383   1.504       .  S
O224        C232   1.267       .  A
O225        C232   1.260       .  A
C226        O233   1.264       .  A
C226        O227   1.255       .  A
C226       C1324   1.503       .  S
C228        O230   1.260       .  A
C228        O234   1.263       .  A
C228       C1338   1.491       .  S
C232       C1425   1.494       .  S
In235       O237   2.242       .  S
In235       O238   2.249       .  S
In235       O246   2.246       .  S
In235       O240   2.301       .  S
In235       O242   2.238       .  S
In235       O243   2.261       .  S
In235       O244   2.254       .  S
In235       O247   2.287       .  S
C236        O242   1.259       .  A
C236        O244   1.259       .  A
C236       C1369   1.477       .  S
O237        C245   1.263       .  A
O238        C245   1.265       .  A
C239        O246   1.255       .  A
C239        O240   1.262       .  A
C239       C1313   1.498       .  S
C241        O243   1.257       .  A
C241        O247   1.263       .  A
C241       C1397   1.489       .  S
C245       C1341   1.487       .  S
In248       O250   2.263       .  S
In248       O251   2.250       .  S
In248       O259   2.290       .  S
In248       O253   2.247       .  S
In248       O255   2.225       .  S
In248       O256   2.250       .  S
In248       O257   2.274       .  S
In248       O260   2.256       .  S
C249        O255   1.255       .  A
C249        O257   1.261       .  A
C249       C1870   1.472       .  S
O250        C258   1.259       .  A
O251        C258   1.259       .  A
C252        O259   1.260       .  A
C252        O253   1.252       .  A
C252       C1282   1.489       .  S
C254        O256   1.266       .  A
C254        O260   1.264       .  A
C254       C1831   1.493       .  S
C258       C1296   1.486       .  S
In261       O263   2.268       .  S
In261       O264   2.266       .  S
In261       O272   2.293       .  S
In261       O266   2.325       .  S
In261       O268   2.285       .  S
In261       O269   2.243       .  S
In261       O270   2.310       .  S
In261       O273   2.265       .  S
C262        O268   1.262       .  A
C262        O270   1.260       .  A
C262       C1859   1.507       .  S
O263        C271   1.266       .  A
O264        C271   1.263       .  A
C265        O272   1.257       .  A
C265        O266   1.265       .  A
C265       C1268   1.521       .  S
C267        O269   1.261       .  A
C267        O273   1.262       .  A
C267       C1299   1.489       .  S
C271       C1789   1.499       .  S
C274        N275   1.362       .  A
C274        N279   1.370       .  A
C274       C1310   1.490       .  S
N275        C276   1.356       .  A
C276        N277   1.361       .  A
C276       C1243   1.488       .  S
N277        C278   1.359       .  A
C278        N279   1.367       .  A
C278       C1254   1.494       .  S
C280        N281   1.377       .  A
C280        N285   1.374       .  A
C280       C1271   1.517       .  S
N281        C282   1.369       .  A
C282        N283   1.350       .  A
C282       C1257   1.494       .  S
N283        C284   1.354       .  A
C284        N285   1.367       .  A
C284       C1226   1.496       .  S
C286        N287   1.373       .  A
C286        N291   1.374       .  A
C286       C1327   1.498       .  S
N287        C288   1.362       .  A
C288        N289   1.343       .  A
C288       C1212   1.476       .  S
N289        C290   1.345       .  A
C290        N291   1.367       .  A
C290       C1240   1.490       .  S
C292        N293   1.364       .  A
C292        N297   1.363       .  A
C292       C1285   1.481       .  S
N293        C294   1.360       .  A
C294        N295   1.361       .  A
C294       C1229   1.499       .  S
N295        C296   1.359       .  A
C296        N297   1.360       .  A
C296       C1215   1.483       .  S
C298        C300   1.546       .  S
C298        C302   1.556   1_554  S
C298        C301   1.568       .  S
C298       C1198   1.564       .  S
C299        C303   1.548       .  S
C299        C305   1.551       .  S
C299        C304   1.554       .  S
C299       C1156   1.561   1_655  S
C300        C308   1.391       .  A
C300        C303   1.390   1_554  A
C301        C312   1.393       .  A
C301        C304   1.422   1_554  A
C302        C316   1.390       .  A
C302        C305   1.387       .  A
C303        C306   1.393   1_656  A
C304        C310   1.390       .  A
C305        C313   1.383       .  A
C306        N307   1.353       .  A
C306        H319   1.077       .  S
N307        C308   1.353   1_455  A
N307       C1184   1.455       .  S
C308        H309   1.073       .  S
C310        N311   1.363   1_556  A
C310        H320   1.082   1_655  S
N311        C312   1.364       .  A
N311       C1355   1.461       .  S
C312        H318   1.082       .  S
C313        N314   1.356       .  A
C313        H315   1.080       .  S
N314        C316   1.361       .  A
N314       C1173   1.458       .  S
C316        H317   1.073       .  S
In321       O323   2.255       .  S
In321       O324   2.242       .  S
In321       O332   2.303       .  S
In321       O326   2.280       .  S
In321       O328   2.248       .  S
In321       O329   2.254       .  S
In321       O330   2.338       .  S
In321       O333   2.257       .  S
C322        O328   1.257       .  A
C322        O330   1.267       .  A
C322       C1971   1.504       .  S
O323        C331   1.265       .  A
O324        C331   1.263       .  A
C325        O332   1.263       .  A
C325        O326   1.258       .  A
C325       C1128   1.506       .  S
C327        O329   1.259       .  A
C327        O333   1.262       .  A
C327       C1142   1.489       .  S
C331       C1761   1.492       .  S
In334       O336   2.227       .  S
In334       O337   2.257       .  S
In334       O345   2.271       .  S
In334       O339   2.242       .  S
In334       O341   2.256       .  S
In334       O342   2.256       .  S
In334       O343   2.249       .  S
In334       O346   2.241       .  S
C335        O341   1.255       .  A
C335        O343   1.257       .  A
C335       C1954   1.479       .  S
O336        C344   1.264       .  A
O337        C344   1.264       .  A
C338        O345   1.259       .  A
C338        O339   1.257       .  A
C338       C1114   1.477       .  S
C340        O342   1.265       .  A
C340        O346   1.260       .  A
C340       C1719   1.489       .  S
C344       C1145   1.488       .  S
C347        N348   1.373       .  A
C347        N352   1.371       .  A
C347       C1072   1.498       .  S
N348        C349   1.363       .  A
C349        N350   1.345       .  A
C349       C1100   1.477       .  S
N350        C351   1.346       .  A
C351        N352   1.361       .  A
C351       C1086   1.482       .  S
C353        N354   1.365       .  A
C353        N358   1.364       .  A
C353       C1117   1.494       .  S
N354        C355   1.360       .  A
C355        N356   1.357       .  A
C355       C1103   1.484       .  S
N356        C357   1.355       .  A
C357        N358   1.356       .  A
C357       C1058   1.483       .  S
C359        N360   1.362       .  A
C359        N364   1.377       .  A
C359       C1030   1.498       .  S
N360        C361   1.355       .  A
C361        N362   1.356       .  A
C361       C1089   1.486       .  S
N362        C363   1.355       .  A
C363        N364   1.373       .  A
C363       C1044   1.498       .  S
C365        N366   1.366       .  A
C365        N370   1.375       .  A
C365       C1131   1.507       .  S
N366        C367   1.359       .  A
C367        N368   1.355       .  A
C367       C1061   1.482       .  S
N368        C369   1.353       .  A
C369        N370   1.370       .  A
C369       C1047   1.495       .  S
In371       O373   2.248       .  S
In371       O374   2.257       .  S
In371       O382   2.278       .  S
In371       O376   2.299       .  S
In371       O378   2.297       .  S
In371       O379   2.246       .  S
In371       O380   2.267       .  S
In371       O383   2.263       .  S
C372        O378   1.263       .  A
C372        O380   1.257       .  A
C372       C1201   1.497       .  S
O373        C381   1.260       .  A
O374        C381   1.262       .  A
C375        O382   1.257       .  A
C375        O376   1.265       .  A
C375       C1033   1.508       .  S
C377        O379   1.264       .  A
C377        O383   1.266       .  A
C377       C1019   1.493       .  S
C381       C1005   1.486       .  S
In384       O386   2.272       .  S
In384       O387   2.252       .  S
In384       O395   2.288       .  S
In384       O389   2.284       .  S
In384       O391   2.257       .  S
In384       O392   2.244       .  S
In384       O393   2.241       .  S
In384       O396   2.253       .  S
C385        O391   1.263       .  A
C385        O393   1.260       .  A
C385       C1170   1.484       .  S
O386        C394   1.263       .  A
O387        C394   1.260       .  A
C388        O395   1.256       .  A
C388        O389   1.257       .  A
C388       C1075   1.499       .  S
C390        O392   1.262       .  A
C390        O396   1.263       .  A
C390       C1002   1.487       .  S
C394        C988   1.492       .  S
C397        C399   1.527   1_556  S
C397        C401   1.528   1_565  S
C397        C400   1.579   1_556  S
C397        C932   1.566       .  S
C398        C402   1.538   1_545  S
C398        C404   1.554   1_554  S
C398        C403   1.575   1_545  S
C398        C974   1.569       .  S
C399        C407   1.386       .  A
C399        C402   1.383       .  A
C400        C411   1.401   1_554  A
C400        C403   1.441       .  A
C401        C415   1.371       .  A
C401        C404   1.378       .  A
C402        C405   1.389       .  A
C403        C409   1.394   1_565  A
C404        C412   1.389       .  A
C405        N406   1.351       .  A
C405        H418   1.078       .  S
N406        C407   1.351       .  A
N406        C949   1.445       .  S
C407        H408   1.082       .  S
C409        N410   1.362   1_545  A
C409        H419   1.082       .  S
N410        C411   1.367   1_554  A
N410       C1845   1.466       .  S
C411        H417   1.082       .  S
C412        N413   1.369       .  A
C412        H414   1.074       .  S
N413        C415   1.360       .  A
N413        C963   1.462       .  S
C415        H416   1.079   1_545  S
In420       O422   2.230       .  S
In420       O423   2.255       .  S
In420       O431   2.275       .  S
In420       O425   2.275       .  S
In420       O427   2.247       .  S
In420       O428   2.260       .  S
In420       O429   2.257       .  S
In420       O432   2.263       .  S
C421        O427   1.258       .  A
C421        O429   1.258       .  A
C421        C946   1.475       .  S
O422        C430   1.262       .  A
O423        C430   1.267       .  A
C424        O431   1.261       .  A
C424        O425   1.259       .  A
C424        C893   1.499       .  S
C426        O428   1.261       .  A
C426        O432   1.264       .  A
C426        C918   1.498       .  S
C430        C904   1.486       .  S
In433       O435   2.264       .  S
In433       O436   2.245       .  S
In433       O444   2.332       .  S
In433       O438   2.274       .  S
In433       O440   2.297       .  S
In433       O441   2.247       .  S
In433       O442   2.309       .  S
In433       O445   2.264       .  S
C434        O440   1.262       .  A
C434        O442   1.258       .  A
C434        C935   1.502       .  S
O435        C443   1.265       .  A
O436        C443   1.263       .  A
C437        O444   1.264       .  A
C437        O438   1.255       .  A
C437        C862   1.516       .  S
C439        O441   1.260       .  A
C439        O445   1.265       .  A
C439        C907   1.490       .  S
C443        C876   1.491       .  S
In446       O448   2.252       .  S
In446       O449   2.251       .  S
In446       O457   2.272       .  S
In446       O451   2.304       .  S
In446       O453   2.256       .  S
In446       O454   2.254       .  S
In446       O455   2.276       .  S
In446       O458   2.222       .  S
C447        O453   1.261       .  A
C447        O455   1.258       .  A
C447       C1187   1.487       .  S
O448        C456   1.264       .  A
O449        C456   1.266       .  A
C450        O457   1.259       .  A
C450        O451   1.264       .  A
C450        C837   1.509       .  S
C452        O454   1.264       .  A
C452        O458   1.264       .  A
C452        C848   1.485       .  S
C456       C1016   1.495       .  S
In459       O461   2.223       .  S
In459       O462   2.253       .  S
In459       O470   2.277       .  S
In459       O464   2.265       .  S
In459       O466   2.259       .  S
In459       O467   2.265       .  S
In459       O468   2.305       .  S
In459       O471   2.268       .  S
C460        O466   1.258       .  A
C460        O468   1.257       .  A
C460       C1159   1.497       .  S
O461        C469   1.265       .  A
O462        C469   1.265       .  A
C463        O470   1.261       .  A
C463        O464   1.257       .  A
C463        C820   1.487       .  S
C465        O467   1.262       .  A
C465        O471   1.259       .  A
C465        C991   1.498       .  S
C469        C851   1.482   1_556  S
C472        N473   1.362       .  A
C472        N477   1.369       .  A
C472        C823   1.502       .  S
N473        C474   1.354       .  A
C474        N475   1.359       .  A
C474        C792   1.482       .  S
N475        C476   1.360       .  A
C476        N477   1.366       .  A
C476        C806   1.485       .  S
C478        N479   1.373       .  A
C478        N483   1.373       .  A
C478        C865   1.505       .  S
N479        C480   1.366       .  A
C480        N481   1.350       .  A
C480        C778   1.487       .  S
N481        C482   1.349       .  A
C482        N483   1.368       .  A
C482        C809   1.481       .  S
C484        N485   1.372       .  A
C484        N489   1.371       .  A
C484        C834   1.496       .  S
N485        C486   1.365       .  A
C486        N487   1.348       .  A
C486        C764   1.482       .  S
N487        C488   1.349       .  A
C488        N489   1.366       .  A
C488        C795   1.484       .  S
C490        N491   1.368       .  A
C490        N495   1.364       .  A
C490        C890   1.494       .  S
N491        C492   1.363       .  A
C492        N493   1.359       .  A
C492        C767   1.487       .  S
N493        C494   1.359       .  A
C494        N495   1.360       .  A
C494        C781   1.489       .  S
C496        C498   1.540   1_554  S
C496        C500   1.526       .  S
C496        C499   1.586       .  S
C496       C1604   1.557       .  S
C497        C501   1.532       .  S
C497        C503   1.526       .  S
C497        C502   1.585       .  S
C497        C736   1.577       .  S
C498        C506   1.383       .  A
C498        C501   1.372       .  A
C499        C510   1.399       .  A
C499        C502   1.451   1_554  A
C500        C514   1.392       .  A
C500        C503   1.373   1_554  A
C501        C504   1.373       .  A
C502        C508   1.401       .  A
C503        C511   1.384   1_556  A
C504        N505   1.363       .  A
C504        H517   1.079       .  S
N505        C506   1.367       .  A
N505       C1565   1.460       .  S
C506        H507   1.077       .  S
C508        N509   1.369       .  A
C508        H518   1.082       .  S
N509        C510   1.367   1_556  A
N509       C1915   1.476       .  S
C510        H516   1.082       .  S
C511        N512   1.349       .  A
C511        H513   1.081   1_554  S
N512        C514   1.350       .  A
N512        C750   1.444       .  S
C514        H515   1.079       .  S
In519       O521   2.231       .  S
In519       O522   2.266       .  S
In519       O530   2.288       .  S
In519       O524   2.283       .  S
In519       O526   2.288       .  S
In519       O527   2.276       .  S
In519       O528   2.199       .  S
In519       O531   2.246       .  S
C520        O526   1.273       .  A
C520        O528   1.257       .  A
C520        C753   1.473       .  S
O521        C529   1.265       .  A
O522        C529   1.271       .  A
C523        O530   1.267       .  A
C523        O524   1.268       .  A
C523        C708   1.513       .  S
C525        O527   1.269       .  A
C525        O531   1.264       .  A
C525       C1593   1.502       .  S
C529        C722   1.494       .  S
In532       O534   2.285       .  S
In532       O535   2.239       .  S
In532       O543   2.294       .  S
In532       O537   2.327       .  S
In532       O539   2.350       .  S
In532       O540   2.246       .  S
In532       O541   2.262       .  S
In532       O544   2.272       .  S
C533        O539   1.269       .  A
C533        O541   1.258       .  A
C533        C739   1.511       .  S
O534        C542   1.266       .  A
O535        C542   1.259       .  A
C536        O543   1.259       .  A
C536        O537   1.267       .  A
C536        C694   1.525       .  S
C538        O540   1.258       .  A
C538        O544   1.264       .  A
C538        C725   1.496       .  S
C542       C1551   1.498       .  S
In545       O547   2.270       .  S
In545       O548   2.256       .  S
In545       O556   2.341       .  S
In545       O550   2.288       .  S
In545       O552   2.310       .  S
In545       O553   2.272       .  S
In545       O554   2.299       .  S
In545       O557   2.249       .  S
C546        O552   1.258       .  A
C546        O554   1.262       .  A
C546        C977   1.507       .  S
O547        C555   1.265       .  A
O548        C555   1.262       .  A
C549        O556   1.264       .  A
C549        O550   1.255       .  A
C549        C666   1.519       .  S
C551        O553   1.263       .  A
C551        O557   1.262       .  A
C551        C680   1.495       .  S
C555        C921   1.498       .  S
In558       O560   2.231       .  S
In558       O561   2.267       .  S
In558       O569   2.232       .  S
In558       O563   2.300       .  S
In558       O565   2.252       .  S
In558       O566   2.230       .  S
In558       O567   2.214       .  S
In558       O570   2.303       .  S
C559        O565   1.262       .  A
C559        O567   1.260       .  A
C559        C960   1.477       .  S
O560        C568   1.261       .  A
O561        C568   1.265       .  A
C562        O569   1.252       .  A
C562        O563   1.262       .  A
C562        C655   1.495       .  S
C564        O566   1.254       .  A
C564        O570   1.265       .  A
C564        C879   1.490       .  S
C568        C683   1.487       .  S
C571        N572   1.374       .  A
C571        N576   1.377       .  A
C571        C697   1.512       .  S
N572        C573   1.368       .  A
C573        N574   1.351       .  A
C573        C638   1.489       .  S
N574        C575   1.352       .  A
C575        N576   1.371       .  A
C575        C624   1.505       .  S
C577        N578   1.366       .  A
C577        N582   1.359       .  A
C577        C652   1.488       .  S
N578        C579   1.367       .  A
C579        N580   1.366       .  A
C579        C641   1.497       .  S
N580        C581   1.363       .  A
C581        N582   1.354       .  A
C581        C610   1.492       .  S
C583        N584   1.373       .  A
C583        N588   1.371       .  A
C583        C711   1.515       .  S
N584        C585   1.370       .  A
C585        N586   1.360       .  A
C585        C596   1.503       .  S
N586        C587   1.363       .  A
C587        N588   1.366       .  A
C587        C627   1.510       .  S
C589        N590   1.378       .  A
C589        N594   1.372       .  A
C589        C669   1.526       .  S
N590        C591   1.371       .  A
C591        N592   1.351       .  A
C591        C599   1.495       .  S
N592        C593   1.352       .  A
C593        N594   1.368       .  A
C593        C613   1.488       .  S
C595        C596   1.409       .  A
C595        C600   1.414       .  A
C595        H602   1.084       .  S
C596        C597   1.423       .  A
C597        C598   1.416       .  A
C597        N604   1.438       .  S
C598        C599   1.406       .  A
C598        H603   1.084       .  S
C599        C600   1.409       .  A
C600        N601   1.432       .  S
N601        H605   1.045       .  S
N601        H606   1.046       .  S
N604        H607   1.046       .  S
N604        H608   1.042       .  S
C609        C610   1.409       .  A
C609        C614   1.410       .  A
C609        H616   1.084       .  S
C610        C611   1.409       .  A
C611        C612   1.409       .  A
C611        N618   1.432       .  S
C612        C613   1.408       .  A
C612        H617   1.084       .  S
C613        C614   1.408       .  A
C614        N615   1.432       .  S
N615        H619   1.046       .  S
N615        H620   1.045       .  S
N618        H621   1.046       .  S
N618        H622   1.045       .  S
C623        C624   1.407       .  A
C623        C628   1.421       .  A
C623        H630   1.083       .  S
C624        C625   1.417       .  A
C625        C626   1.406       .  A
C625        N632   1.433       .  S
C626        C627   1.405       .  A
C626        H631   1.084       .  S
C627        C628   1.419       .  A
C628        N629   1.429       .  S
N629        H633   1.046       .  S
N629        H634   1.045       .  S
N632        H635   1.046       .  S
N632        H636   1.045       .  S
C637        C638   1.407       .  A
C637        C642   1.415       .  A
C637        H644   1.084       .  S
C638        C639   1.411       .  A
C639        C640   1.411       .  A
C639        N646   1.437       .  S
C640        C641   1.405       .  A
C640        H645   1.084       .  S
C641        C642   1.413       .  A
C642        N643   1.432       .  S
N643        H647   1.044       .  S
N643        H648   1.046       .  S
N646        H649   1.046       .  S
N646        H650   1.046       .  S
C651        C652   1.402       .  A
C651        C656   1.396       .  A
C651        H658   1.084       .  S
C652        C653   1.415       .  A
C653        C654   1.410       .  A
C653        N660   1.432       .  S
C654        C655   1.410       .  A
C654        H659   1.083       .  S
C655        C656   1.421       .  A
C656        N657   1.433       .  S
N657        H661   1.045       .  S
N657        H662   1.045       .  S
N660        H663   1.046       .  S
N660        H664   1.044       .  S
C665        C666   1.410       .  A
C665        C670   1.424       .  A
C665        H672   1.084       .  S
C666        C667   1.422       .  A
C667        C668   1.413       .  A
C667        N674   1.432       .  S
C668        C669   1.409       .  A
C668        H673   1.083       .  S
C669        C670   1.423       .  A
C670        N671   1.432       .  S
N671        H675   1.046       .  S
N671        H676   1.045       .  S
N674        H677   1.046       .  S
N674        H678   1.044       .  S
C679        C680   1.408       .  A
C679        C684   1.409   1_554  A
C679        H686   1.084       .  S
C680        C681   1.416       .  A
C681        C682   1.407   1_554  A
C681        N688   1.437       .  S
C682        C683   1.404       .  A
C682        H687   1.084       .  S
C683        C684   1.411       .  A
C684        N685   1.432       .  S
N685        H689   1.046       .  S
N685        H690   1.045       .  S
N688        H691   1.046       .  S
N688        H692   1.045       .  S
C693        C694   1.414       .  A
C693        C698   1.422       .  A
C693        H700   1.083       .  S
C694        C695   1.423       .  A
C695        C696   1.417       .  A
C695        N702   1.431       .  S
C696        C697   1.408       .  A
C696        H701   1.084       .  S
C697        C698   1.414       .  A
C698        N699   1.438       .  S
N699        H703   1.046       .  S
N699        H704   1.045       .  S
N702        H705   1.044       .  S
N702        H706   1.047       .  S
C707        C708   1.406       .  A
C707        C712   1.410       .  A
C707        H714   1.084       .  S
C708        C709   1.417       .  A
C709        C710   1.420       .  A
C709        N716   1.432       .  S
C710        C711   1.410       .  A
C710        H715   1.084       .  S
C711        C712   1.422       .  A
C712        N713   1.430       .  S
N713        H717   1.041       .  S
N713        H718   1.047       .  S
N716        H719   1.045       .  S
N716        H720   1.046       .  S
C721        C722   1.408       .  A
C721        C726   1.403   1_554  A
C721        H728   1.084       .  S
C722        C723   1.411       .  A
C723        C724   1.408   1_554  A
C723        N730   1.432       .  S
C724        C725   1.409       .  A
C724        H729   1.084       .  S
C725        C726   1.417       .  A
C726        N727   1.432       .  S
N727        H731   1.046       .  S
N727        H732   1.044       .  S
N730        H733   1.045       .  S
N730        H734   1.046       .  S
C735        C736   1.420       .  A
C735        C740   1.437       .  A
C735        H742   1.083       .  S
C736        C737   1.444       .  A
C737        C738   1.400       .  A
C737        N744   1.434       .  S
C738        C739   1.389       .  A
C738        H743   1.086       .  S
C739        C740   1.418       .  A
C740        N741   1.429       .  S
N741        H745   1.046       .  S
N741        H746   1.045       .  S
N744        H747   1.046       .  S
N744        H748   1.046       .  S
C749        C750   1.400       .  A
C749        C754   1.392       .  A
C749        H756   1.083       .  S
C750        C751   1.424       .  A
C751        C752   1.409       .  A
C751        N758   1.433       .  S
C752        C753   1.402       .  A
C752        H757   1.084       .  S
C753        C754   1.406       .  A
C754        N755   1.431       .  S
N755        H759   1.045       .  S
N755        H760   1.046       .  S
N758        H761   1.046       .  S
N758        H762   1.044       .  S
C763        C764   1.404       .  A
C763        C768   1.413       .  A
C763        H770   1.084       .  S
C764        C765   1.409       .  A
C765        C766   1.403       .  A
C765        N772   1.433       .  S
C766        C767   1.402       .  A
C766        H771   1.084       .  S
C767        C768   1.421       .  A
C768        N769   1.437       .  S
N769        H773   1.044       .  S
N769        H774   1.045       .  S
N772        H775   1.046       .  S
N772        H776   1.045       .  S
C777        C778   1.404       .  A
C777        C782   1.399       .  A
C777        H784   1.085       .  S
C778        C779   1.410       .  A
C779        C780   1.417       .  A
C779        N786   1.437       .  S
C780        C781   1.410       .  A
C780        H785   1.084       .  S
C781        C782   1.418       .  A
C782        N783   1.438       .  S
N783        H787   1.043       .  S
N783        H788   1.045       .  S
N786        H789   1.044       .  S
N786        H790   1.046       .  S
C791        C792   1.407       .  A
C791        C796   1.415       .  A
C791        H798   1.084       .  S
C792        C793   1.405       .  A
C793        C794   1.401       .  A
C793        N800   1.433       .  S
C794        C795   1.407       .  A
C794        H799   1.084       .  S
C795        C796   1.412       .  A
C796        N797   1.437       .  S
N797        H801   1.044       .  S
N797        H802   1.047       .  S
N800        H803   1.046       .  S
N800        H804   1.046       .  S
C805        C806   1.403       .  A
C805        C810   1.410       .  A
C805        H812   1.084       .  S
C806        C807   1.409       .  A
C807        C808   1.410       .  A
C807        N814   1.432       .  S
C808        C809   1.406       .  A
C808        H813   1.084       .  S
C809        C810   1.409       .  A
C810        N811   1.432       .  S
N811        H815   1.046       .  S
N811        H816   1.045       .  S
N814        H817   1.047       .  S
N814        H818   1.044       .  S
C819        C820   1.406       .  A
C819        C824   1.416       .  A
C819        H826   1.084       .  S
C820        C821   1.410       .  A
C821        C822   1.399       .  A
C821        N828   1.433       .  S
C822        C823   1.411       .  A
C822        H827   1.083       .  S
C823        C824   1.418       .  A
C824        N825   1.437       .  S
N825        H829   1.047       .  S
N825        H830   1.044       .  S
N828        H831   1.044       .  S
N828        H832   1.047       .  S
C833        C834   1.403       .  A
C833        C838   1.414       .  A
C833        H840   1.084       .  S
C834        C835   1.415       .  A
C835        C836   1.411       .  A
C835        N842   1.432       .  S
C836        C837   1.410       .  A
C836        H841   1.083       .  S
C837        C838   1.419       .  A
C838        N839   1.432       .  S
N839        H843   1.046       .  S
N839        H844   1.045       .  S
N842        H845   1.045       .  S
N842        H846   1.046       .  S
C847        C848   1.406       .  A
C847        C852   1.397       .  A
C847        H854   1.084       .  S
C848        C849   1.418       .  A
C849        C850   1.406       .  A
C849        N856   1.432       .  S
C850        C851   1.407       .  A
C850        H855   1.084   1_554  S
C851        C852   1.408       .  A
C852        N853   1.433       .  S
N853        H857   1.045       .  S
N853        H858   1.045       .  S
N856        H859   1.046       .  S
N856        H860   1.044       .  S
C861        C862   1.411       .  A
C861        C866   1.419       .  A
C861        H868   1.083       .  S
C862        C863   1.423       .  A
C863        C864   1.416       .  A
C863        N870   1.438       .  S
C864        C865   1.403       .  A
C864        H869   1.084       .  S
C865        C866   1.413       .  A
C866        N867   1.432       .  S
N867        H871   1.046       .  S
N867        H872   1.045       .  S
N870        H873   1.045       .  S
N870        H874   1.046       .  S
C875        C876   1.404       .  A
C875        C880   1.403       .  A
C875        H882   1.084       .  S
C876        C877   1.414       .  A
C877        C878   1.412       .  A
C877        N884   1.432       .  S
C878        C879   1.406   1_565  A
C878        H883   1.084   1_565  S
C879        C880   1.413   1_545  A
C880        N881   1.433   1_565  S
N881        H885   1.046       .  S
N881        H886   1.045       .  S
N884        H887   1.045       .  S
N884        H888   1.046       .  S
C889        C890   1.407       .  A
C889        C894   1.407       .  A
C889        H896   1.084       .  S
C890        C891   1.409       .  A
C891        C892   1.409       .  A
C891        N898   1.432       .  S
C892        C893   1.407       .  A
C892        H897   1.084       .  S
C893        C894   1.420       .  A
C894        N895   1.432       .  S
N895        H899   1.045       .  S
N895        H900   1.045       .  S
N898        H901   1.046       .  S
N898        H902   1.045       .  S
C903        C904   1.405       .  A
C903        C908   1.405       .  A
C903        H910   1.084       .  S
C904        C905   1.418       .  A
C905        C906   1.403       .  A
C905        N912   1.433       .  S
C906        C907   1.404   1_554  A
C906        H911   1.084       .  S
C907        C908   1.414   1_556  A
C908        N909   1.433   1_554  S
N909        H913   1.046   1_556  S
N909        H914   1.045       .  S
N912        H915   1.045       .  S
N912        H916   1.044       .  S
C917        C918   1.408       .  A
C917        C922   1.405       .  A
C917        H924   1.084       .  S
C918        C919   1.420       .  A
C919        C920   1.404       .  A
C919        N926   1.432       .  S
C920        C921   1.408   1_565  A
C920        H925   1.084   1_565  S
C921        C922   1.418   1_545  A
C922        N923   1.432   1_565  S
N923        H927   1.046       .  S
N923        H928   1.044       .  S
N926        H929   1.046       .  S
N926        H930   1.044       .  S
C931        C932   1.415       .  A
C931        C936   1.433       .  A
C931        H938   1.083       .  S
C932        C933   1.437       .  A
C933        C934   1.398       .  A
C933        N940   1.435       .  S
C934        C935   1.390       .  A
C934        H939   1.086       .  S
C935        C936   1.417       .  A
C936        N937   1.430       .  S
N937        H941   1.045       .  S
N937        H942   1.046       .  S
N940        H943   1.046       .  S
N940        H944   1.046       .  S
C945        C946   1.404       .  A
C945        C950   1.400       .  A
C945        H952   1.084       .  S
C946        C947   1.406       .  A
C947        C948   1.408       .  A
C947        N954   1.432       .  S
C948        C949   1.409       .  A
C948        H953   1.083       .  S
C949        C950   1.410       .  A
C950        N951   1.433       .  S
N951        H955   1.046       .  S
N951        H956   1.045       .  S
N954        H957   1.046       .  S
N954        H958   1.045       .  S
C959        C960   1.402       .  A
C959        C964   1.405       .  A
C959        H966   1.084       .  S
C960        C961   1.411       .  A
C961        C962   1.397       .  A
C961        N968   1.434       .  S
C962        C963   1.416       .  A
C962        H967   1.078       .  S
C963        C964   1.420       .  A
C964        N965   1.435       .  S
N965        H969   1.046       .  S
N965        H970   1.045       .  S
N968        H971   1.047       .  S
N968        H972   1.043       .  S
C973        C974   1.419       .  A
C973        C978   1.404       .  A
C973        H980   1.071       .  S
C974        C975   1.428       .  A
C975        C976   1.432       .  A
C975        N982   1.438       .  S
C976        C977   1.411       .  A
C976        H981   1.083       .  S
C977        C978   1.402       .  A
C978        N979   1.433       .  S
N979        H983   1.046       .  S
N979        H984   1.046       .  S
N982        H985   1.043   1_545  S
N982        H986   1.046       .  S
C987        C988   1.405       .  A
C987        C992   1.406   1_655  A
C987        H994   1.084       .  S
C988        C989   1.414       .  A
C989        C990   1.406   1_655  A
C989        N996   1.433       .  S
C990        C991   1.406       .  A
C990        H995   1.084       .  S
C991        C992   1.422       .  A
C992        N993   1.432       .  S
N993        H997   1.044       .  S
N993        H998   1.047       .  S
N996        H999   1.046       .  S
N996       H1000   1.046       .  S
C1001      C1002   1.406       .  A
C1001      C1006   1.405       .  A
C1001      H1008   1.084       .  S
C1002      C1003   1.412       .  A
C1003      C1004   1.405       .  A
C1003      N1010   1.433       .  S
C1004      C1005   1.406   1_556  A
C1004      H1009   1.084   1_556  S
C1005      C1006   1.411   1_554  A
C1006      N1007   1.432   1_556  S
N1007      H1011   1.046       .  S
N1007      H1012   1.046   1_554  S
N1010      H1013   1.045       .  S
N1010      H1014   1.046       .  S
C1015      C1016   1.406   1_655  A
C1015      C1020   1.406       .  A
C1015      H1022   1.084   1_655  S
C1016      C1017   1.423   1_455  A
C1017      C1018   1.405       .  A
C1017      N1024   1.433       .  S
C1018      C1019   1.405       .  A
C1018      H1023   1.084       .  S
C1019      C1020   1.412       .  A
C1020      N1021   1.432       .  S
N1021      H1025   1.046       .  S
N1021      H1026   1.045       .  S
N1024      H1027   1.046   1_655  S
N1024      H1028   1.043   1_655  S
C1029      C1030   1.405       .  A
C1029      C1034   1.417       .  A
C1029      H1036   1.084       .  S
C1030      C1031   1.412       .  A
C1031      C1032   1.410       .  A
C1031      N1038   1.432       .  S
C1032      C1033   1.406       .  A
C1032      H1037   1.083       .  S
C1033      C1034   1.421       .  A
C1034      N1035   1.432       .  S
N1035      H1039   1.046       .  S
N1035      H1040   1.045       .  S
N1038      H1041   1.045       .  S
N1038      H1042   1.046       .  S
C1043      C1044   1.407       .  A
C1043      C1048   1.407       .  A
C1043      H1050   1.084       .  S
C1044      C1045   1.415       .  A
C1045      C1046   1.420       .  A
C1045      N1052   1.437       .  S
C1046      C1047   1.407       .  A
C1046      H1051   1.083       .  S
C1047      C1048   1.416       .  A
C1048      N1049   1.433       .  S
N1049      H1053   1.045       .  S
N1049      H1054   1.045       .  S
N1052      H1055   1.046       .  S
N1052      H1056   1.045       .  S
C1057      C1058   1.406       .  A
C1057      C1062   1.404       .  A
C1057      H1064   1.084       .  S
C1058      C1059   1.411       .  A
C1059      C1060   1.404       .  A
C1059      N1066   1.438       .  S
C1060      C1061   1.403       .  A
C1060      H1065   1.084       .  S
C1061      C1062   1.415       .  A
C1062      N1063   1.432       .  S
N1063      H1067   1.044       .  S
N1063      H1068   1.046       .  S
N1066      H1069   1.046       .  S
N1066      H1070   1.045       .  S
C1071      C1072   1.407       .  A
C1071      C1076   1.412       .  A
C1071      H1078   1.084       .  S
C1072      C1073   1.413       .  A
C1073      C1074   1.408       .  A
C1073      N1080   1.432       .  S
C1074      C1075   1.406       .  A
C1074      H1079   1.083       .  S
C1075      C1076   1.415       .  A
C1076      N1077   1.432       .  S
N1077      H1081   1.045       .  S
N1077      H1082   1.046       .  S
N1080      H1083   1.046       .  S
N1080      H1084   1.045       .  S
C1085      C1086   1.405       .  A
C1085      C1090   1.414       .  A
C1085      H1092   1.084       .  S
C1086      C1087   1.412       .  A
C1087      C1088   1.394       .  A
C1087      N1094   1.434       .  S
C1088      C1089   1.400       .  A
C1088      H1093   1.084       .  S
C1089      C1090   1.416       .  A
C1090      N1091   1.432       .  S
N1091      H1095   1.045       .  S
N1091      H1096   1.046       .  S
N1094      H1097   1.046       .  S
N1094      H1098   1.046       .  S
C1099      C1100   1.405       .  A
C1099      C1104   1.410       .  A
C1099      H1106   1.084       .  S
C1100      C1101   1.409       .  A
C1101      C1102   1.398       .  A
C1101      N1108   1.433       .  S
C1102      C1103   1.401       .  A
C1102      H1107   1.084       .  S
C1103      C1104   1.418       .  A
C1104      N1105   1.432       .  S
N1105      H1109   1.046       .  S
N1105      H1110   1.044       .  S
N1108      H1111   1.045       .  S
N1108      H1112   1.046       .  S
C1113      C1114   1.402       .  A
C1113      C1118   1.408       .  A
C1113      H1120   1.084       .  S
C1114      C1115   1.405       .  A
C1115      C1116   1.400       .  A
C1115      N1122   1.433       .  S
C1116      C1117   1.409       .  A
C1116      H1121   1.083       .  S
C1117      C1118   1.417       .  A
C1118      N1119   1.432       .  S
N1119      H1123   1.047       .  S
N1119      H1124   1.045       .  S
N1122      H1125   1.046       .  S
N1122      H1126   1.045       .  S
C1127      C1128   1.409       .  A
C1127      C1132   1.412       .  A
C1127      H1134   1.083       .  S
C1128      C1129   1.415       .  A
C1129      C1130   1.412       .  A
C1129      N1136   1.432       .  S
C1130      C1131   1.410       .  A
C1130      H1135   1.084       .  S
C1131      C1132   1.419       .  A
C1132      N1133   1.431       .  S
N1133      H1137   1.044       .  S
N1133      H1138   1.046       .  S
N1136      H1139   1.046       .  S
N1136      H1140   1.045       .  S
C1141      C1142   1.408       .  A
C1141      C1146   1.403   1_554  A
C1141      H1148   1.084       .  S
C1142      C1143   1.415   1_554  A
C1143      C1144   1.398       .  A
C1143      N1150   1.432   1_556  S
C1144      C1145   1.407       .  A
C1144      H1149   1.084       .  S
C1145      C1146   1.417       .  A
C1146      N1147   1.433       .  S
N1147      H1151   1.044       .  S
N1147      H1152   1.046       .  S
N1150      H1153   1.045       .  S
N1150      H1154   1.045       .  S
C1155      C1156   1.416       .  A
C1155      C1160   1.397       .  A
C1155      H1162   1.066   1_455  S
C1156      C1157   1.421       .  A
C1157      C1158   1.425       .  A
C1157      N1164   1.432       .  S
C1158      C1159   1.412       .  A
C1158      H1163   1.083       .  S
C1159      C1160   1.404       .  A
C1160      N1161   1.441       .  S
N1161      H1165   1.045       .  S
N1161      H1166   1.047       .  S
N1164      H1167   1.045   1_556  S
N1164      H1168   1.045       .  S
C1169      C1170   1.404       .  A
C1169      C1174   1.409       .  A
C1169      H1176   1.084       .  S
C1170      C1171   1.407       .  A
C1171      C1172   1.402       .  A
C1171      N1178   1.433       .  S
C1172      C1173   1.412       .  A
C1172      H1177   1.080       .  S
C1173      C1174   1.419       .  A
C1174      N1175   1.436       .  S
N1175      H1179   1.045       .  S
N1175      H1180   1.046       .  S
N1178      H1181   1.046       .  S
N1178      H1182   1.045       .  S
C1183      C1184   1.414       .  A
C1183      C1188   1.413       .  A
C1183      H1190   1.082       .  S
C1184      C1185   1.413       .  A
C1185      C1186   1.402       .  A
C1185      N1192   1.432   1_455  S
C1186      C1187   1.404       .  A
C1186      H1191   1.081       .  S
C1187      C1188   1.408       .  A
C1188      N1189   1.432       .  S
N1189      H1193   1.044       .  S
N1189      H1194   1.046       .  S
N1192      H1195   1.046       .  S
N1192      H1196   1.046       .  S
C1197      C1198   1.409       .  A
C1197      C1202   1.407       .  A
C1197      H1204   1.073       .  S
C1198      C1199   1.414       .  A
C1199      C1200   1.417       .  A
C1199      N1206   1.436       .  S
C1200      C1201   1.408       .  A
C1200      H1205   1.083       .  S
C1201      C1202   1.416       .  A
C1202      N1203   1.432       .  S
N1203      H1207   1.045       .  S
N1203      H1208   1.045       .  S
N1206      H1209   1.045       .  S
N1206      H1210   1.045       .  S
C1211      C1212   1.406       .  A
C1211      C1216   1.415       .  A
C1211      H1218   1.084       .  S
C1212      C1213   1.408       .  A
C1213      C1214   1.403       .  A
C1213      N1220   1.432       .  S
C1214      C1215   1.400       .  A
C1214      H1219   1.084       .  S
C1215      C1216   1.414       .  A
C1216      N1217   1.437       .  S
N1217      H1221   1.044       .  S
N1217      H1222   1.046       .  S
N1220      H1223   1.047       .  S
N1220      H1224   1.044       .  S
C1225      C1226   1.407       .  A
C1225      C1230   1.402       .  A
C1225      H1232   1.084       .  S
C1226      C1227   1.411       .  A
C1227      C1228   1.416       .  A
C1227      N1234   1.431       .  S
C1228      C1229   1.412       .  A
C1228      H1233   1.083       .  S
C1229      C1230   1.412       .  A
C1230      N1231   1.433       .  S
N1231      H1235   1.046       .  S
N1231      H1236   1.045       .  S
N1234      H1237   1.045       .  S
N1234      H1238   1.046       .  S
C1239      C1240   1.406       .  A
C1239      C1244   1.419       .  A
C1239      H1246   1.083       .  S
C1240      C1241   1.422       .  A
C1241      C1242   1.391       .  A
C1241      N1248   1.435       .  S
C1242      C1243   1.397       .  A
C1242      H1247   1.084       .  S
C1243      C1244   1.418       .  A
C1244      N1245   1.437       .  S
N1245      H1249   1.045       .  S
N1245      H1250   1.046       .  S
N1248      H1251   1.044       .  S
N1248      H1252   1.045       .  S
C1253      C1254   1.404       .  A
C1253      C1258   1.411       .  A
C1253      H1260   1.084       .  S
C1254      C1255   1.414       .  A
C1255      C1256   1.411       .  A
C1255      N1262   1.432       .  S
C1256      C1257   1.408       .  A
C1256      H1261   1.084       .  S
C1257      C1258   1.420       .  A
C1258      N1259   1.438       .  S
N1259      H1263   1.045       .  S
N1259      H1264   1.045       .  S
N1262      H1265   1.045       .  S
N1262      H1266   1.046       .  S
C1267      C1268   1.413       .  A
C1267      C1272   1.418       .  A
C1267      H1274   1.083       .  S
C1268      C1269   1.419       .  A
C1269      C1270   1.422       .  A
C1269      N1276   1.437       .  S
C1270      C1271   1.411       .  A
C1270      H1275   1.083       .  S
C1271      C1272   1.414       .  A
C1272      N1273   1.432       .  S
N1273      H1277   1.045       .  S
N1273      H1278   1.046       .  S
N1276      H1279   1.046       .  S
N1276      H1280   1.045       .  S
C1281      C1282   1.404       .  A
C1281      C1286   1.405       .  A
C1281      H1288   1.083       .  S
C1282      C1283   1.419       .  A
C1283      C1284   1.410       .  A
C1283      N1290   1.438       .  S
C1284      C1285   1.402       .  A
C1284      H1289   1.084       .  S
C1285      C1286   1.407       .  A
C1286      N1287   1.432       .  S
N1287      H1291   1.047       .  S
N1287      H1292   1.044       .  S
N1290      H1293   1.045       .  S
N1290      H1294   1.046       .  S
C1295      C1296   1.403       .  A
C1295      C1300   1.402   1_554  A
C1295      H1302   1.084       .  S
C1296      C1297   1.413       .  A
C1297      C1298   1.409   1_554  A
C1297      N1304   1.432       .  S
C1298      C1299   1.407       .  A
C1298      H1303   1.084       .  S
C1299      C1300   1.412       .  A
C1300      N1301   1.432       .  S
N1301      H1305   1.046       .  S
N1301      H1306   1.045       .  S
N1304      H1307   1.045       .  S
N1304      H1308   1.046       .  S
C1309      C1310   1.402       .  A
C1309      C1314   1.403       .  A
C1309      H1316   1.084       .  S
C1310      C1311   1.413       .  A
C1311      C1312   1.418       .  A
C1311      N1318   1.437       .  S
C1312      C1313   1.410       .  A
C1312      H1317   1.083       .  S
C1313      C1314   1.415       .  A
C1314      N1315   1.433       .  S
N1315      H1319   1.046       .  S
N1315      H1320   1.045       .  S
N1318      H1321   1.047       .  S
N1318      H1322   1.045       .  S
C1323      C1324   1.409       .  A
C1323      C1328   1.408       .  A
C1323      H1330   1.084       .  S
C1324      C1325   1.416       .  A
C1325      C1326   1.419       .  A
C1325      N1332   1.437       .  S
C1326      C1327   1.408       .  A
C1326      H1331   1.083       .  S
C1327      C1328   1.409       .  A
C1328      N1329   1.432       .  S
N1329      H1333   1.046       .  S
N1329      H1334   1.046       .  S
N1332      H1335   1.047       .  S
N1332      H1336   1.044       .  S
C1337      C1338   1.407       .  A
C1337      C1342   1.409   1_554  A
C1337      H1344   1.083       .  S
C1338      C1339   1.419       .  A
C1339      C1340   1.400   1_554  A
C1339      N1346   1.433       .  S
C1340      C1341   1.403       .  A
C1340      H1345   1.084       .  S
C1341      C1342   1.413       .  A
C1342      N1343   1.437       .  S
N1343      H1347   1.046       .  S
N1343      H1348   1.045       .  S
N1346      H1349   1.045       .  S
N1346      H1350   1.045       .  S
C1351      C1352   1.408   1_454  A
C1351      C1356   1.418       .  A
C1351      H1358   1.083       .  S
C1352      C1353   1.415       .  A
C1353      C1354   1.419       .  A
C1353      N1360   1.431       .  S
C1354      C1355   1.409   1_556  A
C1354      H1359   1.083       .  S
C1355      C1356   1.413   1_655  A
C1356      N1357   1.431       .  S
N1357      H1361   1.046       .  S
N1357      H1362   1.045       .  S
N1360      H1363   1.045       .  S
N1360      H1364   1.046   1_556  S
C1365      C1366   1.411       .  A
C1365      C1370   1.397       .  A
C1365      H1372   1.078       .  S
C1366      C1367   1.421       .  A
C1367      C1368   1.406       .  A
C1367      N1374   1.435       .  S
C1368      C1369   1.404       .  A
C1368      H1373   1.084       .  S
C1369      C1370   1.406       .  A
C1370      N1371   1.434       .  S
N1371      H1375   1.047       .  S
N1371      H1376   1.044       .  S
N1374      H1377   1.045       .  S
N1374      H1378   1.045       .  S
C1379      C1380   1.417       .  A
C1379      C1384   1.396       .  A
C1379      H1386   1.074   1_554  S
C1380      C1381   1.426       .  A
C1381      C1382   1.432       .  A
C1381      N1388   1.436       .  S
C1382      C1383   1.412       .  A
C1382      H1387   1.083       .  S
C1383      C1384   1.404       .  A
C1384      N1385   1.435       .  S
N1385      H1389   1.046       .  S
N1385      H1390   1.045       .  S
N1388      H1391   1.046       .  S
N1388      H1392   1.044       .  S
C1393      C1394   1.408   1_655  A
C1393      C1398   1.408       .  A
C1393      H1400   1.084   1_655  S
C1394      C1395   1.415   1_455  A
C1395      C1396   1.410       .  A
C1395      N1402   1.432   1_655  S
C1396      C1397   1.404       .  A
C1396      H1401   1.084       .  S
C1397      C1398   1.409       .  A
C1398      N1399   1.432       .  S
N1399      H1403   1.045       .  S
N1399      H1404   1.046       .  S
N1402      H1405   1.045   1_455  S
N1402      H1406   1.046   1_455  S
C1407      C1408   1.387       .  A
C1407      C1412   1.391       .  A
C1407      H1414   1.086       .  S
C1408      C1409   1.414       .  A
C1409      C1410   1.428       .  A
C1409      N1416   1.430       .  S
C1410      C1411   1.411       .  A
C1410      H1415   1.082       .  S
C1411      C1412   1.438       .  A
C1412      N1413   1.437   1_455  S
N1413      H1417   1.045       .  S
N1413      H1418   1.047       .  S
N1416      H1419   1.045       .  S
N1416      H1420   1.045       .  S
C1421      C1422   1.413   1_655  A
C1421      C1426   1.410       .  A
C1421      H1428   1.084   1_655  S
C1422      C1423   1.416   1_455  A
C1423      C1424   1.401       .  A
C1423      N1430   1.432       .  S
C1424      C1425   1.407       .  A
C1424      H1429   1.084       .  S
C1425      C1426   1.410       .  A
C1426      N1427   1.432       .  S
N1427      H1431   1.046       .  S
N1427      H1432   1.046       .  S
N1430      H1433   1.047   1_655  S
N1430      H1434   1.043   1_655  S
C1435      C1436   1.403       .  A
C1435      C1440   1.397       .  A
C1435      H1442   1.085       .  S
C1436      C1437   1.407       .  A
C1437      C1438   1.408       .  A
C1437      N1444   1.432       .  S
C1438      C1439   1.410       .  A
C1438      H1443   1.082       .  S
C1439      C1440   1.412       .  A
C1440      N1441   1.433   1_455  S
N1441      H1445   1.046       .  S
N1441      H1446   1.046       .  S
N1444      H1447   1.045       .  S
N1444      H1448   1.046       .  S
C1449      C1450   1.408       .  A
C1449      C1454   1.405   1_554  A
C1449      H1456   1.084       .  S
C1450      C1451   1.412       .  A
C1451      C1452   1.410   1_554  A
C1451      N1458   1.432       .  S
C1452      C1453   1.408       .  A
C1452      H1457   1.084       .  S
C1453      C1454   1.411       .  A
C1454      N1455   1.433       .  S
N1455      H1459   1.045       .  S
N1455      H1460   1.046       .  S
N1458      H1461   1.046       .  S
N1458      H1462   1.046       .  S
C1463      C1464   1.408       .  A
C1463      C1468   1.412       .  A
C1463      H1470   1.084       .  S
C1464      C1465   1.414       .  A
C1465      C1466   1.405       .  A
C1465      N1472   1.432       .  S
C1466      C1467   1.404       .  A
C1466      H1471   1.084       .  S
C1467      C1468   1.413       .  A
C1468      N1469   1.432       .  S
N1469      H1473   1.045       .  S
N1469      H1474   1.046       .  S
N1472      H1475   1.046       .  S
N1472      H1476   1.045       .  S
C1477      C1478   1.406       .  A
C1477      C1482   1.402       .  A
C1477      H1484   1.084       .  S
C1478      C1479   1.408       .  A
C1479      C1480   1.411       .  A
C1479      N1486   1.431       .  S
C1480      C1481   1.404       .  A
C1480      H1485   1.084       .  S
C1481      C1482   1.412       .  A
C1482      N1483   1.433       .  S
N1483      H1487   1.045       .  S
N1483      H1488   1.045       .  S
N1486      H1489   1.046       .  S
N1486      H1490   1.045       .  S
C1491      C1492   1.415       .  A
C1491      C1496   1.413       .  A
C1491      H1498   1.083       .  S
C1492      C1493   1.424       .  A
C1493      C1494   1.394       .  A
C1493      N1500   1.432       .  S
C1494      C1495   1.402       .  A
C1494      H1499   1.085       .  S
C1495      C1496   1.405       .  A
C1496      N1497   1.431       .  S
N1497      H1501   1.046       .  S
N1497      H1502   1.045       .  S
N1500      H1503   1.044       .  S
N1500      H1504   1.045       .  S
C1505      C1506   1.408       .  A
C1505      C1510   1.410       .  A
C1505      H1512   1.084       .  S
C1506      C1507   1.425       .  A
C1507      C1508   1.407       .  A
C1507      N1514   1.432       .  S
C1508      C1509   1.403       .  A
C1508      H1513   1.084       .  S
C1509      C1510   1.411       .  A
C1510      N1511   1.432       .  S
N1511      H1515   1.046       .  S
N1511      H1516   1.045       .  S
N1514      H1517   1.046       .  S
N1514      H1518   1.044       .  S
C1519      C1520   1.408       .  A
C1519      C1524   1.404       .  A
C1519      H1526   1.084       .  S
C1520      C1521   1.411       .  A
C1521      C1522   1.413       .  A
C1521      N1528   1.431       .  S
C1522      C1523   1.408       .  A
C1522      H1527   1.084       .  S
C1523      C1524   1.409       .  A
C1524      N1525   1.433       .  S
N1525      H1529   1.046       .  S
N1525      H1530   1.046       .  S
N1528      H1531   1.045       .  S
N1528      H1532   1.046       .  S
C1533      C1534   1.404       .  A
C1533      C1538   1.413       .  A
C1533      H1540   1.083       .  S
C1534      C1535   1.408       .  A
C1535      C1536   1.400       .  A
C1535      N1542   1.433       .  S
C1536      C1537   1.401       .  A
C1536      H1541   1.084       .  S
C1537      C1538   1.411       .  A
C1538      N1539   1.436       .  S
N1539      H1543   1.045       .  S
N1539      H1544   1.046       .  S
N1542      H1545   1.045       .  S
N1542      H1546   1.045       .  S
C1547      C1548   1.407       .  A
C1547      C1552   1.407       .  A
C1547      H1554   1.084       .  S
C1548      C1549   1.418       .  A
C1549      C1550   1.401       .  A
C1549      N1556   1.433       .  S
C1550      C1551   1.408       .  A
C1550      H1555   1.084       .  S
C1551      C1552   1.418       .  A
C1552      N1553   1.431       .  S
N1553      H1557   1.045       .  S
N1553      H1558   1.045       .  S
N1556      H1559   1.045       .  S
N1556      H1560   1.045       .  S
C1561      C1562   1.405       .  A
C1561      C1566   1.405       .  A
C1561      H1568   1.084       .  S
C1562      C1563   1.413       .  A
C1563      C1564   1.396       .  A
C1563      N1570   1.433       .  S
C1564      C1565   1.413       .  A
C1564      H1569   1.078       .  S
C1565      C1566   1.415       .  A
C1566      N1567   1.431       .  S
N1567      H1571   1.045       .  S
N1567      H1572   1.046       .  S
N1570      H1573   1.047       .  S
N1570      H1574   1.044       .  S
C1575      C1576   1.404       .  A
C1575      C1580   1.400       .  A
C1575      H1582   1.084       .  S
C1576      C1577   1.412       .  A
C1577      C1578   1.410       .  A
C1577      N1584   1.432       .  S
C1578      C1579   1.405       .  A
C1578      H1583   1.084       .  S
C1579      C1580   1.409       .  A
C1580      N1581   1.433       .  S
N1581      H1585   1.046       .  S
N1581      H1586   1.045       .  S
N1584      H1587   1.046       .  S
N1584      H1588   1.045       .  S
C1589      C1590   1.410       .  A
C1589      C1594   1.414       .  A
C1589      H1596   1.083       .  S
C1590      C1591   1.413       .  A
C1591      C1592   1.410       .  A
C1591      N1598   1.432       .  S
C1592      C1593   1.409       .  A
C1592      H1597   1.084       .  S
C1593      C1594   1.412       .  A
C1594      N1595   1.432       .  S
N1595      H1599   1.045       .  S
N1595      H1600   1.046       .  S
N1598      H1601   1.046       .  S
N1598      H1602   1.046       .  S
C1603      C1604   1.417       .  A
C1603      C1608   1.427       .  A
C1603      H1610   1.083       .  S
C1604      C1605   1.437       .  A
C1605      C1606   1.398       .  A
C1605      N1612   1.434   1_554  S
C1606      C1607   1.390       .  A
C1606      H1611   1.086       .  S
C1607      C1608   1.412       .  A
C1608      N1609   1.430       .  S
N1609      H1613   1.045       .  S
N1609      H1614   1.045       .  S
N1612      H1615   1.047       .  S
N1612      H1616   1.045       .  S
C1617      C1618   1.406       .  A
C1617      C1622   1.416       .  A
C1617      H1624   1.083       .  S
C1618      C1619   1.413       .  A
C1619      C1620   1.408       .  A
C1619      N1626   1.432       .  S
C1620      C1621   1.408       .  A
C1620      H1625   1.083       .  S
C1621      C1622   1.420       .  A
C1622      N1623   1.432       .  S
N1623      H1627   1.046       .  S
N1623      H1628   1.046       .  S
N1626      H1629   1.046       .  S
N1626      H1630   1.045       .  S
C1631      C1632   1.406       .  A
C1631      C1636   1.406   1_554  A
C1631      H1638   1.084       .  S
C1632      C1633   1.410       .  A
C1633      C1634   1.407   1_554  A
C1633      N1640   1.432       .  S
C1634      C1635   1.406       .  A
C1634      H1639   1.084       .  S
C1635      C1636   1.413       .  A
C1636      N1637   1.433       .  S
N1637      H1641   1.046       .  S
N1637      H1642   1.046       .  S
N1640      H1643   1.046       .  S
N1640      H1644   1.045       .  S
C1645      C1646   1.405       .  A
C1645      C1650   1.408       .  A
C1645      H1652   1.084       .  S
C1646      C1647   1.409       .  A
C1647      C1648   1.413       .  A
C1647      N1654   1.432       .  S
C1648      C1649   1.405       .  A
C1648      H1653   1.084       .  S
C1649      C1650   1.408       .  A
C1650      N1651   1.432       .  S
N1651      H1655   1.046       .  S
N1651      H1656   1.045       .  S
N1654      H1657   1.044       .  S
N1654      H1658   1.047       .  S
C1659      C1660   1.407       .  A
C1659      C1664   1.400       .  A
C1659      H1666   1.084       .  S
C1660      C1661   1.409       .  A
C1661      C1662   1.415       .  A
C1661      N1668   1.431       .  S
C1662      C1663   1.412       .  A
C1662      H1667   1.083       .  S
C1663      C1664   1.409       .  A
C1664      N1665   1.433       .  S
N1665      H1669   1.047       .  S
N1665      H1670   1.045       .  S
N1668      H1671   1.045       .  S
N1668      H1672   1.046       .  S
C1673      C1674   1.404       .  A
C1673      C1678   1.402       .  A
C1673      H1680   1.083       .  S
C1674      C1675   1.423       .  A
C1675      C1676   1.420       .  A
C1675      N1682   1.437       .  S
C1676      C1677   1.405       .  A
C1676      H1681   1.083       .  S
C1677      C1678   1.414       .  A
C1678      N1679   1.439       .  S
N1679      H1683   1.044       .  S
N1679      H1684   1.047       .  S
N1682      H1685   1.046       .  S
N1682      H1686   1.045       .  S
C1687      C1688   1.405       .  A
C1687      C1692   1.410       .  A
C1687      H1694   1.084       .  S
C1688      C1689   1.414       .  A
C1689      C1690   1.416       .  A
C1689      N1696   1.438       .  S
C1690      C1691   1.408       .  A
C1690      H1695   1.084       .  S
C1691      C1692   1.416       .  A
C1692      N1693   1.432       .  S
N1693      H1697   1.045       .  S
N1693      H1698   1.046       .  S
N1696      H1699   1.046       .  S
N1696      H1700   1.044       .  S
C1701      C1702   1.407       .  A
C1701      C1706   1.416       .  A
C1701      H1708   1.083       .  S
C1702      C1703   1.426       .  A
C1703      C1704   1.416       .  A
C1703      N1710   1.432       .  S
C1704      C1705   1.409       .  A
C1704      H1709   1.084       .  S
C1705      C1706   1.428       .  A
C1706      N1707   1.432       .  S
N1707      H1711   1.043       .  S
N1707      H1712   1.046       .  S
N1710      H1713   1.044       .  S
N1710      H1714   1.046       .  S
C1715      C1716   1.406       .  A
C1715      C1720   1.404       .  A
C1715      H1722   1.084       .  S
C1716      C1717   1.412       .  A
C1717      C1718   1.409       .  A
C1717      N1724   1.432       .  S
C1718      C1719   1.408       .  A
C1718      H1723   1.084       .  S
C1719      C1720   1.411       .  A
C1720      N1721   1.432       .  S
N1721      H1725   1.046       .  S
N1721      H1726   1.045       .  S
N1724      H1727   1.045       .  S
N1724      H1728   1.046       .  S
C1729      C1730   1.410       .  A
C1729      C1734   1.404       .  A
C1729      H1736   1.083       .  S
C1730      C1731   1.417       .  A
C1731      C1732   1.413       .  A
C1731      N1738   1.432       .  S
C1732      C1733   1.407       .  A
C1732      H1737   1.084       .  S
C1733      C1734   1.407       .  A
C1734      N1735   1.432       .  S
N1735      H1739   1.045       .  S
N1735      H1740   1.046       .  S
N1738      H1741   1.045       .  S
N1738      H1742   1.046       .  S
C1743      C1744   1.404       .  A
C1743      C1748   1.403   1_554  A
C1743      H1750   1.084       .  S
C1744      C1745   1.413       .  A
C1745      C1746   1.406   1_554  A
C1745      N1752   1.433       .  S
C1746      C1747   1.406       .  A
C1746      H1751   1.084       .  S
C1747      C1748   1.412       .  A
C1748      N1749   1.432       .  S
N1749      H1753   1.045       .  S
N1749      H1754   1.046       .  S
N1752      H1755   1.045       .  S
N1752      H1756   1.046       .  S
C1757      C1758   1.406       .  A
C1757      C1762   1.409       .  A
C1757      H1764   1.084       .  S
C1758      C1759   1.415       .  A
C1759      C1760   1.401       .  A
C1759      N1766   1.433       .  S
C1760      C1761   1.408       .  A
C1760      H1765   1.084       .  S
C1761      C1762   1.416       .  A
C1762      N1763   1.438       .  S
N1763      H1767   1.045       .  S
N1763      H1768   1.044       .  S
N1766      H1769   1.045       .  S
N1766      H1770   1.045       .  S
C1771      C1772   1.406       .  A
C1771      C1776   1.403       .  A
C1771      H1778   1.084       .  S
C1772      C1773   1.413       .  A
C1773      C1774   1.411       .  A
C1773      N1780   1.432       .  S
C1774      C1775   1.405       .  A
C1774      H1779   1.084       .  S
C1775      C1776   1.417       .  A
C1776      N1777   1.433       .  S
N1777      H1781   1.044       .  S
N1777      H1782   1.045       .  S
N1780      H1783   1.046       .  S
N1780      H1784   1.045       .  S
C1785      C1786   1.409       .  A
C1785      C1790   1.408       .  A
C1785      H1792   1.084       .  S
C1786      C1787   1.415       .  A
C1787      C1788   1.415       .  A
C1787      N1794   1.437       .  S
C1788      C1789   1.408   1_565  A
C1788      H1793   1.083   1_565  S
C1789      C1790   1.412   1_545  A
C1790      N1791   1.432       .  S
N1791      H1795   1.046       .  S
N1791      H1796   1.046       .  S
N1794      H1797   1.045       .  S
N1794      H1798   1.046       .  S
C1799      C1800   1.410       .  A
C1799      C1804   1.417       .  A
C1799      H1806   1.084       .  S
C1800      C1801   1.414       .  A
C1801      C1802   1.409       .  A
C1801      N1808   1.431       .  S
C1802      C1803   1.409       .  A
C1802      H1807   1.083       .  S
C1803      C1804   1.417       .  A
C1804      N1805   1.438       .  S
N1805      H1809   1.046       .  S
N1805      H1810   1.045       .  S
N1808      H1811   1.045       .  S
N1808      H1812   1.045       .  S
C1813      C1814   1.407       .  A
C1813      C1818   1.406   1_556  A
C1813      H1820   1.084       .  S
C1814      C1815   1.413       .  A
C1815      C1816   1.405   1_556  A
C1815      N1822   1.432       .  S
C1816      C1817   1.405       .  A
C1816      H1821   1.084       .  S
C1817      C1818   1.411       .  A
C1818      N1819   1.432       .  S
N1819      H1823   1.046       .  S
N1819      H1824   1.045       .  S
N1822      H1825   1.046       .  S
N1822      H1826   1.046       .  S
C1827      C1828   1.405       .  A
C1827      C1832   1.399   1_565  A
C1827      H1834   1.084       .  S
C1828      C1829   1.412       .  A
C1829      C1830   1.411   1_565  A
C1829      N1836   1.432       .  S
C1830      C1831   1.409       .  A
C1830      H1835   1.084       .  S
C1831      C1832   1.419       .  A
C1832      N1833   1.432       .  S
N1833      H1837   1.044       .  S
N1833      H1838   1.046       .  S
N1836      H1839   1.046       .  S
N1836      H1840   1.045       .  S
C1841      C1842   1.418   1_556  A
C1841      C1846   1.426       .  A
C1841      H1848   1.082   1_565  S
C1842      C1843   1.428       .  A
C1843      C1844   1.424       .  A
C1843      N1850   1.436       .  S
C1844      C1845   1.405       .  A
C1844      H1849   1.083       .  S
C1845      C1846   1.413   1_554  A
C1846      N1847   1.436   1_565  S
N1847      H1851   1.046   1_545  S
N1847      H1852   1.045       .  S
N1850      H1853   1.044       .  S
N1850      H1854   1.047       .  S
C1855      C1856   1.419       .  A
C1855      C1860   1.427       .  A
C1855      H1862   1.083       .  S
C1856      C1857   1.431       .  A
C1857      C1858   1.404       .  A
C1857      N1864   1.431   1_556  S
C1858      C1859   1.396       .  A
C1858      H1863   1.085       .  S
C1859      C1860   1.423       .  A
C1860      N1861   1.437       .  S
N1861      H1865   1.042       .  S
N1861      H1866   1.046       .  S
N1864      H1867   1.046       .  S
N1864      H1868   1.046       .  S
C1869      C1870   1.398       .  A
C1869      C1874   1.405       .  A
C1869      H1876   1.084       .  S
C1870      C1871   1.403       .  A
C1871      C1872   1.401       .  A
C1871      N1878   1.432       .  S
C1872      C1873   1.410       .  A
C1872      H1877   1.081       .  S
C1873      C1874   1.427       .  A
C1874      N1875   1.430       .  S
N1875      H1879   1.045       .  S
N1875      H1880   1.046       .  S
N1878      H1881   1.045       .  S
N1878      H1882   1.046       .  S
C1883      C1884   1.403       .  A
C1883      C1888   1.391       .  A
C1883      H1890   1.085       .  S
C1884      C1885   1.400       .  A
C1885      C1886   1.401       .  A
C1885      N1892   1.432       .  S
C1886      C1887   1.408       .  A
C1886      H1891   1.083       .  S
C1887      C1888   1.403       .  A
C1888      N1889   1.433       .  S
N1889      H1893   1.046       .  S
N1889      H1894   1.046       .  S
N1892      H1895   1.044       .  S
N1892      H1896   1.047       .  S
C1897      C1898   1.420       .  A
C1897      C1902   1.400       .  A
C1897      H1904   1.074       .  S
C1898      C1899   1.432       .  A
C1899      C1900   1.423       .  A
C1899      N1906   1.432       .  S
C1900      C1901   1.410       .  A
C1900      H1905   1.083       .  S
C1901      C1902   1.401       .  A
C1902      N1903   1.435       .  S
N1903      H1907   1.047       .  S
N1903      H1908   1.045       .  S
N1906      H1909   1.047       .  S
N1906      H1910   1.040       .  S
C1911      C1912   1.413   1_554  A
C1911      C1916   1.427       .  A
C1911      H1918   1.083       .  S
C1912      C1913   1.420       .  A
C1913      C1914   1.424       .  A
C1913      N1920   1.431       .  S
C1914      C1915   1.411       .  A
C1914      H1919   1.083       .  S
C1915      C1916   1.420   1_556  A
C1916      N1917   1.431       .  S
N1917      H1921   1.046       .  S
N1917      H1922   1.045       .  S
N1920      H1923   1.046       .  S
N1920      H1924   1.045       .  S
C1925      C1926   1.407       .  A
C1925      C1930   1.419       .  A
C1925      H1932   1.076       .  S
C1926      C1927   1.417       .  A
C1927      C1928   1.425       .  A
C1927      N1934   1.437       .  S
C1928      C1929   1.414       .  A
C1928      H1933   1.083       .  S
C1929      C1930   1.419       .  A
C1930      N1931   1.437       .  S
N1931      H1935   1.046       .  S
N1931      H1936   1.045       .  S
N1934      H1937   1.045       .  S
N1934      H1938   1.045       .  S
C1939      C1940   1.412       .  A
C1939      C1944   1.406       .  A
C1939      H1946   1.081       .  S
C1940      C1941   1.425       .  A
C1941      C1942   1.405       .  A
C1941      N1948   1.429       .  S
C1942      C1943   1.401       .  A
C1942      H1947   1.084       .  S
C1943      C1944   1.408       .  A
C1944      N1945   1.432       .  S
N1945      H1949   1.045       .  S
N1945      H1950   1.046       .  S
N1948      H1951   1.046       .  S
N1948      H1952   1.046       .  S
C1953      C1954   1.403       .  A
C1953      C1958   1.403       .  A
C1953      H1960   1.084       .  S
C1954      C1955   1.412       .  A
C1955      C1956   1.402       .  A
C1955      N1962   1.433       .  S
C1956      C1957   1.407       .  A
C1956      H1961   1.083       .  S
C1957      C1958   1.413       .  A
C1958      N1959   1.430       .  S
N1959      H1963   1.046       .  S
N1959      H1964   1.045       .  S
N1962      H1965   1.045       .  S
N1962      H1966   1.046       .  S
C1967      C1968   1.427       .  A
C1967      C1972   1.392       .  A
C1967      H1974   1.077       .  S
C1968      C1969   1.426       .  A
C1969      C1970   1.442       .  A
C1969      N1976   1.434       .  S
C1970      C1971   1.416       .  A
C1970      H1975   1.083       .  S
C1971      C1972   1.396       .  A
C1972      N1973   1.436       .  S
N1973      H1977   1.046       .  S
N1973      H1978   1.046       .  S
N1976      H1979   1.044       .  S
N1976      H1980   1.046       .  S
