geometry optimzed in LAMMPS
_audit_creation_date              2020-12-01 
_audit_creation_method            'lammps2cif' 
_symmetry_space_group_name_H-M    'P1' 
_symmetry_Int_Tables_number       1 
_symmetry_cell_setting            triclinic 
loop_ 
_symmetry_equiv_pos_as_xyz 
  x,y,z 
_cell_length_a                    35.91964261 
_cell_length_b                    35.99264885207182 
_cell_length_c                    35.918703338149044 
_cell_angle_alpha                 90.2072269976858 
_cell_angle_beta                  90.02614798226047 
_cell_angle_gamma                 90.05600087995342 
loop_ 
_atom_site_label 
_atom_site_type_symbol 
_atom_site_fract_x 
_atom_site_fract_y 
_atom_site_fract_z 
_atom_site_charge 
O1          O  0.83481623  0.79170237  0.55031324    -0.83600
C2          C  0.70036241  0.80803994  0.61740192     0.95800
O3          O  0.73174292  0.79340653  0.62327823    -0.72700
O4          O  0.79481296  0.76144959  0.60703148    -0.76300
Al5        Al  0.77824552  0.81190115  0.60912811     1.49000
C6          C  0.78580491  0.73532901  0.58546833     0.91000
O7          O  0.74241491  0.77824635  0.49814760    -0.82500
O8          O  0.74983012  0.86461500  0.50520476    -0.76100
Al9        Al  0.78590236  0.78776653  0.52775972     1.90100
O10         O  0.69838952  0.81080119  0.52444033    -0.75100
O11         O  0.74786122  0.88905324  0.57508485    -0.75000
O12         O  0.69640120  0.83359737  0.59335460    -0.80600
O13         O  0.76512916  0.86057243  0.62541667    -0.78800
O14         O  0.76340640  0.81578280  0.56207460    -1.15000
O15         O  0.82634772  0.82989352  0.59760380    -0.74200
C16         C  0.84789513  0.81212349  0.57615514     0.96500
C17         C  0.70846387  0.78678251  0.50110700     0.92900
Al18       Al  0.72645927  0.84690862  0.55043866     1.55600
O19         O  0.77502976  0.74212454  0.55283532    -0.78800
C20         C  0.75584032  0.89000941  0.60921100     0.97100
C21         C  0.77981696  0.85629403  0.48844246     0.92000
O22         O  0.79908134  0.82891483  0.49864795    -0.84100
O23         O  0.82570294  0.99672743  0.29707692    -0.83600
C24         C  0.81388417  0.87968294  0.19200329     0.95800
O25         O  0.83891449  0.90444407  0.19154066    -0.72700
O26         O  0.80875420  0.97050501  0.19477048    -0.76300
Al27       Al  0.84646207  0.94730311  0.22327972     1.49000
C28         C  0.78343815  0.99238292  0.20522474     0.91000
O29         O  0.74018373  0.94026475  0.27062167    -0.82500
O30         O  0.82515384  0.89396874  0.32067821    -0.76100
Al31       Al  0.78533152  0.96593572  0.28231945     1.90100
O32         O  0.76052877  0.88454329  0.28314233    -0.75100
O33         O  0.86151966  0.87286792  0.26085804    -0.75000
O34         O  0.79653918  0.87234380  0.22163044    -0.80600
O35         O  0.88889454  0.92514781  0.24673199    -0.78800
O36         O  0.81456703  0.93307414  0.25886601    -1.15000
O37         O  0.86015805  0.99346269  0.24682406    -0.74200
C38         C  0.85154792  0.00944668  0.27703250     0.96500
C39         C  0.73415058  0.90658129  0.27756569     0.92900
Al40       Al  0.81137037  0.88519482  0.27055383     1.55600
O41         O  0.77550712  0.99560356  0.23933888    -0.78800
C42         C  0.89073477  0.89107589  0.25481479     0.97100
C43         C  0.80765161  0.91512564  0.34273409     0.92000
O44         O  0.78887213  0.94223181  0.33036628    -0.84100
O45         O  0.00246958  0.80660118  0.66491570    -0.83600
C46         C  0.11741017  0.70167116  0.68603926     0.95800
O47         O  0.09254248  0.69941714  0.66111457    -0.72700
O48         O  0.02441159  0.70468903  0.68614704    -0.76300
Al49       Al  0.05096604  0.73104991  0.64908221     1.49000
C50         C  0.00043622  0.71641706  0.70886078     0.91000
O51         O  0.05418654  0.78073876  0.75364853    -0.82500
O52         O  0.10305301  0.82961009  0.66778443    -0.76100
Al53       Al  0.03032361  0.79231569  0.70727610     1.90100
O54         O  0.11021219  0.79520098  0.73463044    -0.75100
O55         O  0.12670620  0.76824137  0.63516624    -0.75000
O56         O  0.12472998  0.73237266  0.70158310    -0.80600
O57         O  0.07596224  0.75136876  0.60656413    -0.78800
O58         O  0.06416247  0.76782971  0.68000042    -1.15000
O59         O  0.00686056  0.75533462  0.63177549    -0.74200
C60         C  0.99161483  0.78637925  0.63824619     0.96500
C61         C  0.08775609  0.78843632  0.76050077     0.92900
Al62       Al  0.11190580  0.78027945  0.68426742     1.55600
O63         O  0.99828389  0.75065321  0.71616914    -0.78800
C64         C  0.10999677  0.75993299  0.60558242     0.97100
C65         C  0.08184342  0.85191100  0.68487639     0.92000
O66         O  0.05499984  0.83979188  0.70425366    -0.84100
O67         O  0.18654350  0.17945573  0.48494593    -0.83600
C68         C  0.29175190  0.19878971  0.36947873     0.95800
O69         O  0.29361646  0.17380828  0.39414870    -0.72700
O70         O  0.28866475  0.19979269  0.46150967    -0.76300
Al71       Al  0.26190320  0.16264040  0.43599502     1.49000
C72         C  0.27760627  0.22264450  0.48559027     0.91000
O73         O  0.21350552  0.26697284  0.43246755    -0.82500
O74         O  0.16335003  0.18152118  0.38383754    -0.76100
Al75       Al  0.20126852  0.22123803  0.45653857     1.90100
O76         O  0.19862828  0.24795164  0.37645952    -0.75100
O77         O  0.22495639  0.14812544  0.36045874    -0.75000
O78         O  0.26117896  0.21446267  0.36214050    -0.80600
O79         O  0.24110966  0.12009054  0.41161160    -0.78800
O80         O  0.22534698  0.19350924  0.42273277    -1.15000
O81         O  0.23770180  0.14625472  0.48070301    -0.74200
C82         C  0.20686920  0.15323229  0.49632382     0.96500
C83         C  0.20592468  0.27374956  0.39894738     0.92900
Al84       Al  0.21301786  0.19748067  0.37495409     1.55600
O85         O  0.24341208  0.23021896  0.48838903    -0.78800
C86         C  0.23355253  0.11882658  0.37735326     0.97100
C87         C  0.14111931  0.19909009  0.40480701     0.92000
O88         O  0.15345413  0.21833190  0.43180396    -0.84100
O89         O  0.20210541  0.06419675  0.65307410    -0.83600
C90         C  0.18512201  0.12625340  0.79111886     0.95800
O91         O  0.20060183  0.13289602  0.76031284    -0.72700
O92         O  0.23267899  0.11945718  0.69687369    -0.76300
Al93       Al  0.18235402  0.12053554  0.71297050     1.49000
C94         C  0.25875121  0.09718795  0.70346779     0.91000
O95         O  0.21611819  0.00840322  0.74327642    -0.82500
O96         O  0.13182604  0.01467795  0.73862907    -0.76100
Al97       Al  0.20620201  0.03959925  0.70097064     1.90100
O98         O  0.18593460  0.03473809  0.78910016    -0.75100
O99         O  0.10527906  0.08366666  0.74213044    -0.75000
O100        O  0.15977722  0.10190781  0.79378975    -0.80600
O101        O  0.13336276  0.13495656  0.72653204    -0.78800
O102        O  0.17865048  0.07299353  0.72543733    -1.15000
O103        O  0.16487039  0.11150733  0.66398877    -0.74200
C104        C  0.18239162  0.09102488  0.64130877     0.96500
C105        C  0.20920088  0.01129799  0.77767835     0.92900
Al106      Al  0.14825109  0.05971096  0.76251592     1.55600
O107        O  0.25208056  0.06403470  0.71222382    -0.78800
C108        C  0.10407623  0.11802102  0.73542744     0.97100
C109        C  0.13874007  0.99905986  0.70771899     0.92000
O110        O  0.16449074  0.01084739  0.68702604    -0.84100
O111        O  0.93794996  0.17042229  0.29462225    -0.83600
C112        C  0.87450237  0.31532752  0.30444938     0.95800
O113        O  0.85765440  0.28465826  0.30279108    -0.72700
O114        O  0.87085207  0.23914380  0.24912504    -0.76300
Al115      Al  0.87248386  0.23419940  0.30141880     1.49000
C116        C  0.89073819  0.22308725  0.22528700     0.91000
O117        O  0.97322253  0.26179836  0.25311764    -0.82500
O118        O  0.97093193  0.24624907  0.36100267    -0.76100
Al119      Al  0.95364670  0.21769939  0.27604417     1.90100
O120        O  0.97658476  0.29604635  0.30362151    -0.75100
O121        O  0.90277432  0.27177321  0.37382008    -0.75000
O122        O  0.90825345  0.31717363  0.31376260    -0.80600
O123        O  0.86534362  0.22841985  0.35359560    -0.78800
O124        O  0.92128460  0.24354533  0.30443072    -1.15000
O125        O  0.87789485  0.18152659  0.29874673    -0.74200
C126        C  0.90480889  0.15895158  0.29799921     0.96500
C127        C  0.98467766  0.29054199  0.26996479     0.92900
Al128      Al  0.93816074  0.27927869  0.33532538     1.55600
O129        O  0.92251508  0.21133067  0.23366720    -0.78800
C130        C  0.87565542  0.25027966  0.37904106     0.97100
C131        C  0.99524896  0.22587258  0.34580969     0.92000
O132        O  0.99244502  0.21698351  0.31194320    -0.84100
O133        O  0.68710353  0.32999878  0.50275216    -0.83600
C134        C  0.79237477  0.30944894  0.61828563     0.95800
O135        O  0.79367169  0.33501224  0.59411131    -0.72700
O136        O  0.78969848  0.31169154  0.52505819    -0.76300
Al137      Al  0.76178502  0.34703978  0.55248334     1.49000
C138        C  0.77874240  0.28902908  0.50062612     0.91000
O139        O  0.71549370  0.24126455  0.55290357    -0.82500
O140        O  0.66402440  0.32460992  0.60354738    -0.76100
Al141      Al  0.70259565  0.28764240  0.53003456     1.90100
O142        O  0.69992129  0.25858432  0.60921322    -0.75100
O143        O  0.72467785  0.35799960  0.62889180    -0.75000
O144        O  0.76226529  0.29251076  0.62492953    -0.80600
O145        O  0.73962602  0.38779173  0.57840384    -0.78800
O146        O  0.72610095  0.31476397  0.56470190    -1.15000
O147        O  0.73708866  0.36474929  0.50839940    -0.74200
C148        C  0.70645689  0.35742557  0.49248599     0.96500
C149        C  0.70768353  0.23347888  0.58618007     0.92900
Al150      Al  0.71372353  0.30905025  0.61236954     1.55600
O151        O  0.74475168  0.28052851  0.49831585    -0.78800
C152        C  0.73208310  0.38793975  0.61266532     0.97100
C153        C  0.64219381  0.30787795  0.58146690     0.92000
O154        O  0.65486784  0.28909277  0.55439784    -0.84100
O155        O  0.70023278  0.44702977  0.33580289    -0.83600
C156        C  0.68486287  0.37856204  0.20000436     0.95800
O157        O  0.69935788  0.37357960  0.23155485    -0.72700
O158        O  0.73118005  0.39152970  0.29388392    -0.76300
Al159      Al  0.68056492  0.38887954  0.27780169     1.49000
C160        C  0.75685605  0.41384939  0.28540373     0.91000
O161        O  0.71241008  0.50143835  0.24413583    -0.82500
O162        O  0.63086897  0.49351447  0.24604927    -0.76100
Al163      Al  0.70332437  0.47039485  0.28694295     1.90100
O164        O  0.68674666  0.47128751  0.19791122    -0.75100
O165        O  0.60452490  0.42447632  0.24435404    -0.75000
O166        O  0.66038840  0.40349209  0.19520461    -0.80600
O167        O  0.63140433  0.37406066  0.26440443    -0.78800
O168        O  0.67705326  0.43568124  0.26294010    -1.15000
O169        O  0.66235446  0.40017961  0.32606656    -0.74200
C170        C  0.68020242  0.42078611  0.34833533     0.96500
C171        C  0.70750990  0.49695327  0.20952548     0.92900
Al172      Al  0.64804057  0.44732299  0.22431160     1.55600
O173        O  0.74963814  0.44680124  0.27614693    -0.78800
C174        C  0.60263606  0.39074084  0.25344425     0.97100
C175        C  0.63577853  0.50913511  0.27744856     0.92000
O176        O  0.66029721  0.49747495  0.29970807    -0.84100
O177        O  0.32420417  0.50939626  0.69072715    -0.83600
C178        C  0.30802233  0.62639248  0.79467054     0.95800
O179        O  0.33293349  0.60156070  0.79661707    -0.72700
O180        O  0.30568297  0.53441991  0.79286796    -0.76300
Al181      Al  0.34300318  0.55898100  0.76514408     1.49000
C182        C  0.28155012  0.51147895  0.78198555     0.91000
O183        O  0.23745111  0.56422991  0.71751457    -0.82500
O184        O  0.32351325  0.61012224  0.66654524    -0.76100
Al185      Al  0.28297964  0.53898450  0.70537117     1.90100
O186        O  0.25745730  0.61946889  0.70219858    -0.75100
O187        O  0.35775103  0.63352212  0.72698758    -0.75000
O188        O  0.29210259  0.63345140  0.76416106    -0.80600
O189        O  0.38553514  0.58226918  0.74319000    -0.78800
O190        O  0.31162680  0.57235170  0.72884274    -1.15000
O191        O  0.35855138  0.51357739  0.74121210    -0.74200
C192        C  0.35071449  0.49773952  0.71064244     0.96500
C193        C  0.23118351  0.59776388  0.70973853     0.92900
Al194      Al  0.30819936  0.61990161  0.71606474     1.55600
O195        O  0.27383154  0.50852825  0.74784523    -0.78800
C196        C  0.38703001  0.61620851  0.73474138     0.97100
C197        C  0.30535742  0.58925358  0.64473312     0.92000
O198        O  0.28588355  0.56275256  0.65738093    -0.84100
O199        O  0.44084770  0.33888398  0.69179507    -0.83600
C200        C  0.37547804  0.19551490  0.67757749     0.95800
O201        O  0.35866060  0.22626669  0.67768097    -0.72700
O202        O  0.37199082  0.26994336  0.73299373    -0.76300
Al203      Al  0.37459065  0.27652185  0.68118418     1.49000
C204        C  0.39203987  0.28371749  0.75817398     0.91000
O205        O  0.47519992  0.24522565  0.72945615    -0.82500
O206        O  0.47116929  0.26411845  0.62191719    -0.76100
Al207      Al  0.45578503  0.29047576  0.70825022     1.90100
O208        O  0.47864726  0.21336132  0.67761681    -0.75100
O209        O  0.40298213  0.23839362  0.60964976    -0.75000
O210        O  0.40957749  0.19327579  0.66977480    -0.80600
O211        O  0.36896772  0.28454000  0.62922589    -0.78800
O212        O  0.42310900  0.26617922  0.67893802    -1.15000
O213        O  0.38088914  0.32864616  0.68572785    -0.74200
C214        C  0.40801348  0.35082674  0.68767411     0.96500
C215        C  0.48685990  0.21730376  0.71143063     0.92900
Al216      Al  0.43920022  0.23074349  0.64747665     1.55600
O217        O  0.42442919  0.29498109  0.75108407    -0.78800
C218        C  0.37741207  0.26160245  0.60415551     0.97100
C219        C  0.49584761  0.28398260  0.63729282     0.92000
O220        O  0.49393311  0.29211711  0.67150546    -0.84100
O221        O  0.50125951  0.70262425  0.31985189    -0.83600
C222        C  0.61866721  0.80535521  0.30430206     0.95800
O223        O  0.59335538  0.80786424  0.32876533    -0.72700
O224        O  0.52517708  0.80489655  0.30335179    -0.76300
Al225      Al  0.55100668  0.77666802  0.33959081     1.49000
C226        C  0.50162904  0.79426355  0.27970105     0.91000
O227        O  0.55607898  0.73062321  0.23325905    -0.82500
O228        O  0.60066469  0.67747692  0.31921995    -0.76100
Al229      Al  0.53050466  0.71787666  0.27865903     1.90100
O230        O  0.61086322  0.71332794  0.25339638    -0.75100
O231        O  0.62565851  0.73739834  0.35400893    -0.75000
O232        O  0.62591715  0.77473181  0.28864363    -0.80600
O233        O  0.57491409  0.75500716  0.38189152    -0.78800
O234        O  0.56409087  0.74059168  0.30772249    -1.15000
O235        O  0.50642933  0.75213568  0.35559392    -0.74200
C236        C  0.49080279  0.72155478  0.34762539     0.96500
C237        C  0.58951583  0.72172088  0.22705155     0.92900
Al238      Al  0.61152483  0.72690669  0.30431090     1.55600
O239        O  0.49965620  0.76041384  0.27070263    -0.78800
C240        C  0.60872167  0.74594691  0.38335422     0.97100
C241        C  0.57961592  0.65630362  0.30046569     0.92000
O242        O  0.55392562  0.66972151  0.28042252    -0.84100
O243        O  0.33518839  0.71295413  0.43673014    -0.83600
C244        C  0.20089316  0.69593055  0.37021193     0.95800
O245        O  0.23286083  0.70869125  0.36323435    -0.72700
O246        O  0.29584415  0.74031623  0.37900842    -0.76300
Al247      Al  0.27884578  0.69027762  0.37887316     1.49000
C248        C  0.28613867  0.76736926  0.39894532     0.91000
O249        O  0.24328967  0.72857657  0.48918064    -0.82500
O250        O  0.24832484  0.64275977  0.48377436    -0.76100
Al251      Al  0.28625801  0.71768034  0.45921150     1.90100
O252        O  0.19840799  0.69708715  0.46315884    -0.75100
O253        O  0.24478161  0.61546029  0.41536604    -0.75000
O254        O  0.19584390  0.67188983  0.39546321    -0.80600
O255        O  0.26530022  0.64145421  0.36489727    -0.78800
O256        O  0.26336602  0.68873262  0.42586025    -1.15000
O257        O  0.32675719  0.67234185  0.39162062    -0.74200
C258        C  0.34835615  0.69157739  0.41176359     0.96500
C259        C  0.20915043  0.72075583  0.48653178     0.92900
Al260      Al  0.22531540  0.65931157  0.43846668     1.55600
O261        O  0.27535092  0.76233137  0.43198124    -0.78800
C262        C  0.25407364  0.61308623  0.38166712     0.97100
C263        C  0.27871386  0.65025136  0.50019399     0.92000
O264        O  0.29893806  0.67698424  0.48970360    -0.84100
O265        O  0.79780388  0.55549437  0.83057130    -0.83600
C266        C  0.80687836  0.61756142  0.68467095     0.95800
O267        O  0.80404823  0.63426680  0.71536724    -0.72700
O268        O  0.75067244  0.61984844  0.76048307    -0.76300
Al269      Al  0.80293555  0.62000598  0.76592516     1.49000
C270        C  0.72725024  0.59956343  0.77648552     0.91000
O271        O  0.75778631  0.51721746  0.73973547    -0.82500
O272        O  0.86523895  0.52250029  0.75549953    -0.76100
Al273      Al  0.77983798  0.53853046  0.78351329     1.90100
O274        O  0.80810328  0.51550925  0.70518935    -0.75100
O275        O  0.87668874  0.59093829  0.72995922    -0.75000
O276        O  0.81732277  0.58412979  0.68313975    -0.80600
O277        O  0.85480439  0.62904994  0.77195181    -0.78800
O278        O  0.80745121  0.57121802  0.75724367    -1.15000
O279        O  0.80035675  0.61530884  0.81864491    -0.74200
C280        C  0.80049016  0.58877096  0.84154871     0.96500
C281        C  0.77494903  0.50579302  0.71118602     0.92900
Al282      Al  0.83902424  0.55472983  0.72193213     1.55600
O283        O  0.73643697  0.56838281  0.78899208    -0.78800
C284        C  0.88084891  0.61877362  0.75086024     0.97100
C285        C  0.85042484  0.49848155  0.77643562     0.92000
O286        O  0.81662437  0.50106772  0.78528730    -0.84100
O287        O  0.98513720  0.30610741  0.82505068    -0.83600
C288        C  0.86941088  0.20143885  0.80831720     0.95800
O289        O  0.89479355  0.19935224  0.83268677    -0.72700
O290        O  0.96271760  0.20389636  0.80743931    -0.76300
Al291      Al  0.93625706  0.23143538  0.84404457     1.49000
C292        C  0.98575592  0.21495236  0.78357685     0.91000
O293        O  0.93074681  0.27800134  0.73822772    -0.82500
O294        O  0.88443353  0.33063839  0.82347866    -0.76100
Al295      Al  0.95590789  0.29084004  0.78377890     1.90100
O296        O  0.87526898  0.29336569  0.75803208    -0.75100
O297        O  0.86084625  0.27027143  0.85876108    -0.75000
O298        O  0.86117683  0.23213263  0.79348019    -0.80600
O299        O  0.91146393  0.25213100  0.88660668    -0.78800
O300        O  0.92253935  0.26757200  0.81256530    -1.15000
O301        O  0.98062221  0.25656646  0.86047338    -0.74200
C302        C  0.99639206  0.28695453  0.85223666     0.96500
C303        C  0.89715930  0.28594347  0.73182178     0.92900
Al304      Al  0.87477591  0.28047408  0.80899072     1.55600
O305        O  0.98724315  0.24886465  0.77512465    -0.78800
C306        C  0.87754892  0.26105686  0.88799071     0.97100
C307        C  0.90561267  0.35202484  0.80520043     0.92000
O308        O  0.93198748  0.33872806  0.78594654    -0.84100
O309        O  0.79969713  0.67332385  0.99981732    -0.83600
C310        C  0.69605784  0.69439376  0.11606538     0.95800
O311        O  0.69410513  0.66871566  0.09186092    -0.72700
O312        O  0.69915854  0.69298455  0.02398571    -0.76300
Al313      Al  0.72569408  0.65626680  0.05008047     1.49000
C314        C  0.70995443  0.71737299  0.00147348     0.91000
O315        O  0.77697446  0.76110183  0.05411291    -0.82500
O316        O  0.82395634  0.67447055  0.10208527    -0.76100
Al317      Al  0.78673147  0.71482496  0.02938431     1.90100
O318        O  0.79123625  0.74150344  0.10972889    -0.75100
O319        O  0.76142448  0.64323826  0.12598139    -0.75000
O320        O  0.72677450  0.71013323  0.12321716    -0.80600
O321        O  0.74611119  0.61386437  0.07520352    -0.78800
O322        O  0.76245512  0.68738461  0.06312075    -1.15000
O323        O  0.74963865  0.63875794  0.00536763    -0.74200
C324        C  0.77975025  0.64660483  0.98884472     0.96500
C325        C  0.78599135  0.76759960  0.08736526     0.92900
Al326      Al  0.77477292  0.69176456  0.11091959     1.55600
O327        O  0.74407820  0.72544351  0.99898632    -0.78800
C328        C  0.75297360  0.61350552  0.10965054     0.97100
C329        C  0.84655443  0.69094867  0.08064310     0.92000
O330        O  0.83469227  0.70982420  0.05329926    -0.84100
O331        O  0.16404990  0.49976326  0.19076700    -0.83600
C332        C  0.18153840  0.38483459  0.29465409     0.95800
O333        O  0.15528583  0.40833923  0.29556036    -0.72700
O334        O  0.17954694  0.47639706  0.29189029    -0.76300
Al335      Al  0.14390523  0.44967584  0.26359960     1.49000
C336        C  0.20502207  0.49817837  0.28184372     0.91000
O337        O  0.25088375  0.44522125  0.21601247    -0.82500
O338        O  0.16514578  0.39720679  0.16668758    -0.76100
Al339      Al  0.20492380  0.46998263  0.20490760     1.90100
O340        O  0.23140920  0.38977371  0.20113495    -0.75100
O341        O  0.13230613  0.37338020  0.22775737    -0.75000
O342        O  0.19823598  0.37735836  0.26456701    -0.80600
O343        O  0.10250092  0.42432003  0.24095518    -0.78800
O344        O  0.17649695  0.43655144  0.22818766    -1.15000
O345        O  0.12722238  0.49386326  0.23907500    -0.74200
C346        C  0.13631809  0.51039830  0.20945095     0.96500
C347        C  0.25750769  0.41196886  0.20745827     0.92900
Al348      Al  0.18121410  0.38877707  0.21616070     1.55600
O349        O  0.21456145  0.49989996  0.24804840    -0.78800
C350        C  0.10219353  0.39005691  0.23341317     0.97100
C351        C  0.18160961  0.41898249  0.14448822     0.92000
O352        O  0.20071460  0.44613106  0.15674329    -0.84100
O353        O  0.04909227  0.66973279  0.19154937    -0.83600
C354        C  0.11237539  0.81303300  0.17188715     0.95800
O355        O  0.12961699  0.78250518  0.16981136    -0.72700
O356        O  0.11942915  0.74123217  0.22748992    -0.76300
Al357      Al  0.11423951  0.73206250  0.17646887     1.49000
C358        C  0.10094143  0.72828391  0.25411935     0.91000
O359        O  0.01712759  0.76329746  0.22996529    -0.82500
O360        O  0.01540389  0.74187657  0.12218495    -0.76100
Al361      Al  0.03499971  0.71803608  0.20821179     1.90100
O362        O  0.00903708  0.79334961  0.17785478    -0.75100
O363        O  0.08285791  0.76931534  0.10704484    -0.75000
O364        O  0.07751965  0.81450950  0.16822433    -0.80600
O365        O  0.11624572  0.72196910  0.12466102    -0.78800
O366        O  0.06569151  0.74180585  0.17691396    -1.15000
O367        O  0.10881518  0.67989983  0.18342347    -0.74200
C368        C  0.08173662  0.65775660  0.18663060     0.96500
C369        C  0.00400344  0.79055994  0.21236127     0.92900
Al370      Al  0.04767477  0.77649084  0.14634181     1.55600
O371        O  0.06885026  0.71512038  0.24908422    -0.78800
C372        C  0.10784601  0.74564845  0.10039962     0.97100
C373        C  0.99162484  0.72200334  0.13892396     0.92000
O374        O  0.99482783  0.71538181  0.17339218    -0.84100
O375        O  0.15481404  0.30818710  0.94215398    -0.83600
C376        C  0.29767706  0.32359747  0.87696677     0.95800
O377        O  0.26686516  0.32689093  0.86041513    -0.72700
O378        O  0.22366536  0.27100984  0.87126579    -0.76300
Al379      Al  0.21670986  0.32247595  0.87651280     1.49000
C380        C  0.21153554  0.24462404  0.89060076     0.91000
O381        O  0.24843788  0.26984034  0.97465909    -0.82500
O382        O  0.22987220  0.37740447  0.97500794    -0.76100
Al383      Al  0.20333436  0.29169093  0.95624306     1.90100
O384        O  0.28022644  0.32125822  0.98065295    -0.75100
O385        O  0.25667060  0.39144571  0.90711387    -0.75000
O386        O  0.30062632  0.32983129  0.91146193    -0.80600
O387        O  0.20859958  0.37451024  0.87413846    -0.78800
O388        O  0.22747116  0.32224658  0.92492226    -1.15000
O389        O  0.16456249  0.31734558  0.88261838    -0.74200
C390        C  0.14259454  0.31356393  0.90966777     0.96500
C391        C  0.27631525  0.28722028  0.98712887     0.92900
Al392      Al  0.26341368  0.35247400  0.94213785     1.55600
O393        O  0.19969506  0.25010677  0.92312532    -0.78800
C394        C  0.23299572  0.39829044  0.88226304     0.97100
C395        C  0.20935538  0.36143147  0.99879354     0.92000
O396        O  0.20140339  0.32727984  0.99567526    -0.84100
O397        O  0.54881722  0.83735458  0.79578187    -0.83600
C398        C  0.61031184  0.69414389  0.81612317     0.95800
O399        O  0.62802063  0.72435191  0.81870109    -0.72700
O400        O  0.61790077  0.76474792  0.76087631    -0.76300
Al401      Al  0.61315181  0.77469945  0.81183027     1.49000
C402        C  0.59942037  0.77731611  0.73407518     0.91000
O403        O  0.51467991  0.74349445  0.76012512    -0.82500
O404        O  0.51460571  0.76621111  0.86731792    -0.76100
Al405      Al  0.53374752  0.78883716  0.78060806     1.90100
O406        O  0.50728604  0.71394228  0.81264618    -0.75100
O407        O  0.58219923  0.73879329  0.88229548    -0.75000
O408        O  0.57575666  0.69263871  0.82199367    -0.80600
O409        O  0.61580977  0.78553394  0.86343329    -0.78800
O410        O  0.56446928  0.76529077  0.81206404    -1.15000
O411        O  0.60842080  0.82680069  0.80406552    -0.74200
C412        C  0.58166109  0.84909123  0.80004055     0.96500
C413        C  0.50137323  0.71665993  0.77826371     0.92900
Al414      Al  0.54646779  0.73114315  0.84351490     1.55600
O415        O  0.56726302  0.79040304  0.73904060    -0.78800
C416        C  0.60757597  0.76231639  0.88818033     0.97100
C417        C  0.49086486  0.78607154  0.85052993     0.92000
O418        O  0.49407271  0.79277489  0.81605719    -0.84100
O419        O  0.29852136  0.83347956  0.98640086    -0.83600
C420        C  0.19379637  0.81519206  0.87085436     0.95800
O421        O  0.19231859  0.84055547  0.89536550    -0.72700
O422        O  0.19727355  0.81614862  0.96327937    -0.76300
Al423      Al  0.22450891  0.85235645  0.93671459     1.49000
C424        C  0.20794047  0.79133417  0.98539688     0.91000
O425        O  0.27307599  0.74654711  0.93170090    -0.82500
O426        O  0.32252766  0.83229556  0.88427576    -0.76100
Al427      Al  0.28429828  0.79238170  0.95669881     1.90100
O428        O  0.28752382  0.76617301  0.87613534    -0.75100
O429        O  0.26091844  0.86521772  0.86072589    -0.75000
O430        O  0.22427572  0.79942083  0.86299494    -0.80600
O431        O  0.24552160  0.89441030  0.91152575    -0.78800
O432        O  0.26053313  0.82059745  0.92325234    -1.15000
O433        O  0.24944019  0.86935009  0.98085986    -0.74200
C434        C  0.27955848  0.86098614  0.99707342     0.96500
C435        C  0.28112905  0.74006867  0.89820969     0.92900
Al436      Al  0.27273674  0.81634870  0.87538563     1.55600
O437        O  0.24186573  0.78258151  0.98719442    -0.78800
C438        C  0.25305544  0.89493670  0.87725133     0.97100
C439        C  0.34457544  0.81537279  0.90591595     0.92000
O440        O  0.33208221  0.79634093  0.93281078    -0.84100
O441        O  0.66381998  0.00807188  0.79618733    -0.83600
C442        C  0.68368885  0.12283617  0.69100448     0.95800
O443        O  0.65849375  0.09829412  0.68957631    -0.72700
O444        O  0.68485844  0.03093488  0.69499183    -0.76300
Al445      Al  0.64721473  0.05700114  0.72138818     1.49000
C446        C  0.70894464  0.00838287  0.70667987     0.91000
O447        O  0.75183186  0.06248465  0.77334494    -0.82500
O448        O  0.66510952  0.11109671  0.81928168    -0.76100
Al449      Al  0.70546651  0.03773746  0.78314021     1.90100
O450        O  0.73178039  0.11850032  0.78523355    -0.75100
O451        O  0.63276425  0.13307133  0.75744278    -0.75000
O452        O  0.69950372  0.13082213  0.72145219    -0.80600
O453        O  0.60431215  0.08180099  0.74194052    -0.78800
O454        O  0.67798219  0.07093417  0.75817781    -1.15000
O455        O  0.63053186  0.01241710  0.74520815    -0.74200
C456        C  0.63784685  0.99636803  0.77558508     0.96500
C457        C  0.75808373  0.09626286  0.78010893     0.92900
Al458      Al  0.68182697  0.11897245  0.76981558     1.55600
O459        O  0.71652555  0.00680946  0.74098323    -0.78800
C460        C  0.60320641  0.11599939  0.74999415     0.97100
C461        C  0.68053319  0.08933094  0.84216383     0.92000
O462        O  0.69981355  0.06208943  0.83070410    -0.84100
O463        O  0.48417446  0.20201657  0.16389985    -0.83600
C464        C  0.36928392  0.30741553  0.18011330     0.95800
O465        O  0.39403712  0.30851594  0.15502390    -0.72700
O466        O  0.46186526  0.30448495  0.18103059    -0.76300
Al467      Al  0.43579923  0.27641169  0.14457045     1.49000
C468        C  0.48475819  0.29366685  0.20518489     0.91000
O469        O  0.43073722  0.23035447  0.25088392    -0.82500
O470        O  0.38301468  0.17865644  0.16592320    -0.76100
Al471      Al  0.45537115  0.21753028  0.20517843     1.90100
O472        O  0.37498460  0.21557508  0.23139897    -0.75100
O473        O  0.36002004  0.23892073  0.13118540    -0.75000
O474        O  0.36152175  0.27735413  0.19645371    -0.80600
O475        O  0.41127038  0.25427143  0.10267652    -0.78800
O476        O  0.42204391  0.24088889  0.17661062    -1.15000
O477        O  0.48049435  0.25150531  0.12850133    -0.74200
C478        C  0.49578424  0.22092532  0.13674972     0.96500
C479        C  0.39708223  0.22294150  0.25743551     0.92900
Al480      Al  0.37417929  0.22869713  0.18070287     1.55600
O481        O  0.48663199  0.25973032  0.21363633    -0.78800
C482        C  0.37716647  0.24598397  0.10163203     0.97100
C483        C  0.40427742  0.15699306  0.18367517     0.92000
O484        O  0.43102744  0.16983930  0.20282293    -0.84100
O485        O  0.65395392  0.19762299  0.04777735    -0.83600
C486        C  0.79676794  0.17721667  0.10936685     0.95800
O487        O  0.76660264  0.17333219  0.12704766    -0.72700
O488        O  0.72370126  0.23003087  0.11955232    -0.76300
Al489      Al  0.71595978  0.17887323  0.11224250     1.49000
C490        C  0.71224687  0.25740968  0.10126995     0.91000
O491        O  0.74871047  0.23372819  0.01540775    -0.82500
O492        O  0.72542148  0.12644684  0.01281103    -0.76100
Al493      Al  0.70286107  0.21282612  0.03366953     1.90100
O494        O  0.77750870  0.18121051  0.00603024    -0.75100
O495        O  0.75437831  0.11037069  0.07947092    -0.75000
O496        O  0.79870406  0.17150364  0.07473908    -0.80600
O497        O  0.70687836  0.12679068  0.11321217    -0.78800
O498        O  0.72607722  0.18055006  0.06369833    -1.15000
O499        O  0.66373345  0.18507831  0.10673392    -0.74200
C500        C  0.64172810  0.19099678  0.08002422     0.96500
C501        C  0.77531514  0.21570157  0.00121656     0.92900
Al502      Al  0.76067611  0.14988746  0.04487833     1.55600
O503        O  0.70099485  0.25346694  0.06826442    -0.78800
C504        C  0.73105314  0.10306195  0.10449506     0.97100
C505        C  0.70552137  0.14373311  0.98941953     0.92000
O506        O  0.69919162  0.17821573  0.99317965    -0.84100
O507        O  0.28406282  0.94587353  0.15577973    -0.83600
C508        C  0.30305715  0.88237584  0.29358916     0.95800
O509        O  0.28608354  0.87567621  0.26340850    -0.72700
O510        O  0.25406857  0.88998377  0.19906340    -0.76300
Al511      Al  0.30391792  0.88891463  0.21532359     1.49000
C512        C  0.22752409  0.91224443  0.20327963     0.91000
O513        O  0.26968921  0.00091990  0.24617901    -0.82500
O514        O  0.35456124  0.99523476  0.24102173    -0.76100
Al515      Al  0.27958945  0.96991805  0.20375899     1.90100
O516        O  0.30074614  0.97556911  0.29186496    -0.75100
O517        O  0.38107374  0.92623867  0.24377153    -0.75000
O518        O  0.32732450  0.90789897  0.29558003    -0.80600
O519        O  0.35297900  0.87481327  0.22828824    -0.78800
O520        O  0.30737230  0.93660095  0.22800139    -1.15000
O521        O  0.32105517  0.89829518  0.16604586    -0.74200
C522        C  0.30395959  0.91936697  0.14362589     0.96500
C523        C  0.27741000  0.99896078  0.28043386     0.92900
Al524      Al  0.33821721  0.95019420  0.26473088     1.55600
O525        O  0.23336612  0.94507329  0.21412055    -0.78800
C526        C  0.38233044  0.89190961  0.23667243     0.97100
C527        C  0.34732699  0.01060893  0.21019757     0.92000
O528        O  0.32110870  0.99887102  0.19002808    -0.84100
C529        C  0.36872159  0.10116156  0.16157225    -0.15100
C530        C  0.39566247  0.11674906  0.18525978     0.07000
C531        C  0.41061944  0.09473721  0.21391165    -0.15100
C532        C  0.39660982  0.05909903  0.22070973    -0.15100
C533        C  0.36765790  0.04459522  0.19871993     0.07000
C534        C  0.35504460  0.06538577  0.16807891    -0.15100
H535        H  0.35685942  0.11730069  0.13911622     0.11000
H536        H  0.43145702  0.10593182  0.23265831     0.11000
H537        H  0.40709767  0.04373426  0.24436095     0.11000
H538        H  0.33293141  0.05496252  0.15038568     0.11000
C539        C  0.55099501  0.17902822  0.13108223    -0.15100
C540        C  0.52957529  0.20825429  0.11646930     0.07000
C541        C  0.54332880  0.22771561  0.08543682    -0.15100
C542        C  0.57883611  0.21978040  0.07113304    -0.15100
C543        C  0.60136474  0.19273175  0.08803943     0.07000
C544        C  0.58659311  0.17165444  0.11730762    -0.15100
H545        H  0.54129866  0.16332453  0.15484449     0.11000
H546        H  0.52749393  0.25029750  0.07344609     0.11000
H547        H  0.58973233  0.23666617  0.04873237     0.11000
H548        H  0.60336733  0.15062993  0.13079751     0.11000
C549        C  0.70077522  0.07732840  0.90788605    -0.15100
C550        C  0.67918590  0.09788751  0.88256139     0.07000
C551        C  0.66085371  0.12993939  0.89534608    -0.15100
C552        C  0.66710871  0.14323296  0.93139462    -0.15100
C553        C  0.69178681  0.12474811  0.95543219     0.07000
C554        C  0.70698894  0.09062657  0.94403588    -0.15100
H555        H  0.71497167  0.05228433  0.89903440     0.11000
H556        H  0.64362409  0.14615712  0.87674982     0.11000
H557        H  0.65439119  0.16927522  0.93961232     0.11000
H558        H  0.72582216  0.07556167  0.96204384     0.11000
C559        C  0.27058532  0.91213628  0.04400116    -0.15100
C560        C  0.29135724  0.88171445  0.03090251     0.07000
C561        C  0.32058277  0.86810995  0.05310760    -0.15100
C562        C  0.32659808  0.88224853  0.08893901    -0.15100
C563        C  0.30377453  0.91055868  0.10322913     0.07000
C564        C  0.27684657  0.92652309  0.07973040    -0.15100
H565        H  0.24807859  0.92347272  0.02750643     0.11000
H566        H  0.33732723  0.84486573  0.04379564     0.11000
H567        H  0.34775596  0.86955711  0.10619959     0.11000
H568        H  0.25883765  0.94846861  0.08982381     0.11000
C569        C  0.61542502  0.90521674  0.82301457    -0.15100
C570        C  0.58995989  0.88919741  0.79807402     0.07000
C571        C  0.57699110  0.91030151  0.76795718    -0.15100
C572        C  0.59096940  0.94612863  0.76168702    -0.15100
C573        C  0.61780479  0.96167474  0.78575359     0.07000
C574        C  0.62885085  0.94124082  0.81721079    -0.15100
H575        H  0.62596384  0.88929048  0.84627786     0.11000
H576        H  0.55791957  0.89816602  0.74793790     0.11000
H577        H  0.58209844  0.96090178  0.73701763     0.11000
H578        H  0.64947480  0.95225226  0.83628955     0.11000
C579        C  0.44375663  0.78067521  0.90158274    -0.15100
C580        C  0.45721124  0.79949452  0.87017903     0.07000
C581        C  0.43548610  0.82799416  0.85462865    -0.15100
C582        C  0.39975298  0.83538101  0.86820830    -0.15100
C583        C  0.38497898  0.81430328  0.89753019     0.07000
C584        C  0.40797021  0.78798599  0.91511550    -0.15100
H585        H  0.45980217  0.75851144  0.91407719     0.11000
H586        H  0.44535914  0.84328257  0.83065811     0.11000
H587        H  0.38291804  0.85607717  0.85431539     0.11000
H588        H  0.39745056  0.77121969  0.93777838     0.11000
C589        C  0.31995752  0.23151800  0.06445471    -0.15100
C590        C  0.35543671  0.24820458  0.06671591     0.07000
C591        C  0.36642911  0.27282398  0.03865855    -0.15100
C592        C  0.34117462  0.28339229  0.01108141    -0.15100
C593        C  0.30466509  0.26914300  0.01069526     0.07000
C594        C  0.29483879  0.24168657  0.03643681    -0.15100
H595        H  0.31077504  0.21237719  0.08577266     0.11000
H596        H  0.39338438  0.28629878  0.03979358     0.11000
H597        H  0.34952574  0.30439831  0.99122458     0.11000
H598        H  0.26690872  0.23032113  0.03671505     0.11000
C599        C  0.15979364  0.85664476  0.14943376    -0.15100
C600        C  0.13423254  0.84697790  0.17707626     0.07000
C601        C  0.13490806  0.86557112  0.21154401    -0.15100
C602        C  0.16324763  0.89137056  0.21931836    -0.15100
C603        C  0.19064772  0.89861363  0.19248953     0.07000
C604        C  0.18756829  0.88253716  0.15696316    -0.15100
H605        H  0.15984924  0.84218829  0.12290692     0.11000
H606        H  0.11562622  0.85779858  0.23335537     0.11000
H607        H  0.16581907  0.90276149  0.24715110     0.11000
H608        H  0.20890654  0.88732911  0.13617297     0.11000
C609        C  0.11817017  0.77240909  0.03719161    -0.15100
C610        C  0.13043644  0.74933990  0.06616197     0.07000
C611        C  0.16725002  0.73611599  0.06540526    -0.15100
C612        C  0.19209424  0.74823542  0.03797289    -0.15100
C613        C  0.18052675  0.77362040  0.01064531     0.07000
C614        C  0.14289237  0.78430680  0.00965607    -0.15100
H615        H  0.08996380  0.78302451  0.03701963     0.11000
H616        H  0.17764087  0.71860771  0.08755541     0.11000
H617        H  0.22082213  0.73924374  0.03935315     0.11000
H618        H  0.13292589  0.80345515  0.98871638     0.11000
C619        C  0.16160462  0.37966234  0.09054793    -0.15100
C620        C  0.18191430  0.41017981  0.10416608     0.07000
C621        C  0.20690834  0.42834464  0.08014448    -0.15100
C622        C  0.21396932  0.41415387  0.04448568    -0.15100
C623        C  0.19618066  0.38155426  0.03230120     0.07000
C624        C  0.16870439  0.36547966  0.05503380    -0.15100
H625        H  0.14187266  0.36526539  0.10816634     0.11000
H626        H  0.22292173  0.45201035  0.08976617     0.11000
H627        H  0.23516745  0.42720910  0.02754072     0.11000
H628        H  0.15408559  0.34063303  0.04618173     0.11000
C629        C  0.13186350  0.56739950  0.17021187    -0.15100
C630        C  0.11645194  0.54467177  0.19801808     0.07000
C631        C  0.08535270  0.55774509  0.21797094    -0.15100
C632        C  0.07178511  0.59379470  0.21205937    -0.15100
C633        C  0.08950878  0.61746571  0.18658061     0.07000
C634        C  0.11882403  0.60351949  0.16489057    -0.15100
H635        H  0.15571911  0.55824981  0.15420813     0.11000
H636        H  0.07280966  0.54091183  0.23952941     0.11000
H637        H  0.04928221  0.60406249  0.22931071     0.11000
H638        H  0.13283022  0.62122478  0.14497491     0.11000
C639        C  0.30708929  0.37313066  0.23305784    -0.15100
C640        C  0.29519350  0.39691741  0.20468702     0.07000
C641        C  0.31224178  0.39485181  0.16958724    -0.15100
C642        C  0.33887552  0.36736750  0.16221218    -0.15100
C643        C  0.34795505  0.34116893  0.18965549     0.07000
C644        C  0.33315702  0.34538243  0.22557870    -0.15100
H645        H  0.29349571  0.37365190  0.25997294     0.11000
H646        H  0.30241439  0.41211591  0.14697907     0.11000
H647        H  0.34986632  0.36461879  0.13426099     0.11000
H648        H  0.34008959  0.32586138  0.24729229     0.11000
C649        C  0.89962045  0.67393071  0.12233523    -0.15100
C650        C  0.88675413  0.69190981  0.09017814     0.07000
C651        C  0.91127182  0.71561952  0.07093210    -0.15100
C652        C  0.94667831  0.72357188  0.08532450    -0.15100
C653        C  0.95812511  0.70804512  0.11926241     0.07000
C654        C  0.93485335  0.68194825  0.13672596    -0.15100
H655        H  0.88160527  0.65538215  0.13774192     0.11000
H656        H  0.90225346  0.72991273  0.04603505     0.11000
H657        H  0.96404583  0.74366063  0.07115737     0.11000
H658        H  0.94307920  0.66909630  0.16267716     0.11000
C659        C  0.64464569  0.72390487  0.97813432    -0.15100
C660        C  0.68215061  0.73511671  0.97666713     0.07000
C661        C  0.69295920  0.76085615  0.94937259    -0.15100
C662        C  0.66745766  0.77278949  0.92240170    -0.15100
C663        C  0.63080131  0.75894694  0.92207279     0.07000
C664        C  0.61933108  0.73555593  0.95108358    -0.15100
H665        H  0.63520810  0.70445099  0.99904488     0.11000
H666        H  0.72154607  0.77028033  0.94767806     0.11000
H667        H  0.67722341  0.79064579  0.90024306     0.11000
H668        H  0.59129943  0.72444765  0.95162754     0.11000
C669        C  0.07959002  0.28517735  0.91749310    -0.15100
C670        C  0.10224423  0.31278178  0.90176548     0.07000
C671        C  0.08770409  0.33505663  0.87327059    -0.15100
C672        C  0.05200644  0.32847245  0.85919223    -0.15100
C673        C  0.03033877  0.29888618  0.87275298     0.07000
C674        C  0.04403446  0.27808443  0.90292505    -0.15100
H675        H  0.09044422  0.26723656  0.93906988     0.11000
H676        H  0.10474379  0.35639885  0.86059271     0.11000
H677        H  0.04239682  0.34509536  0.83603396     0.11000
H678        H  0.02811927  0.25506229  0.91397700     0.11000
C679        C  0.84295155  0.13824817  0.82222684    -0.15100
C680        C  0.84806365  0.16801979  0.79745542     0.07000
C681        C  0.82951677  0.16742650  0.76308779    -0.15100
C682        C  0.80367390  0.13968912  0.75509102    -0.15100
C683        C  0.79554915  0.11221838  0.78138583     0.07000
C684        C  0.81642603  0.11063017  0.81437943    -0.15100
H685        H  0.85704585  0.13803095  0.84888600     0.11000
H686        H  0.83322630  0.18973264  0.74331223     0.11000
H687        H  0.78723039  0.14185136  0.72992199     0.11000
H688        H  0.80972681  0.09028911  0.83550284     0.11000
C689        C  0.82016843  0.27390874  0.92585768    -0.15100
C690        C  0.85544256  0.25697706  0.92272226     0.07000
C691        C  0.86577728  0.23051123  0.94938685    -0.15100
C692        C  0.84020138  0.21875168  0.97632168    -0.15100
C693        C  0.80401529  0.23372633  0.97769749     0.07000
C694        C  0.79482234  0.26265272  0.95334258    -0.15100
H695        H  0.81134869  0.29435638  0.90564881     0.11000
H696        H  0.89251263  0.21672864  0.94760787     0.11000
H697        H  0.84813278  0.19659400  0.99505078     0.11000
H698        H  0.76717751  0.27462983  0.95376894     0.11000
C699        C  0.77705482  0.57996875  0.90652842    -0.15100
C700        C  0.80135879  0.59780609  0.88168168     0.07000
C701        C  0.82196543  0.62851151  0.89419293    -0.15100
C702        C  0.81697350  0.64241746  0.93019981    -0.15100
C703        C  0.79047968  0.62653954  0.95424275     0.07000
C704        C  0.77134759  0.59445454  0.94241919    -0.15100
H705        H  0.76048282  0.55652267  0.89729222     0.11000
H706        H  0.84075658  0.64279978  0.87547945     0.11000
H707        H  0.83216046  0.66717508  0.93827669     0.11000
H708        H  0.75074016  0.58161444  0.96023050     0.11000
C709        C  0.90089237  0.45071283  0.76855410    -0.15100
C710        C  0.87102175  0.46514435  0.78918653     0.07000
C711        C  0.85677232  0.44410793  0.81894770    -0.15100
C712        C  0.86979101  0.40819846  0.82587081    -0.15100
C713        C  0.89751163  0.39247123  0.80329071     0.07000
C714        C  0.91400688  0.41468420  0.77552834    -0.15100
H715        H  0.91230382  0.46614450  0.74537318     0.11000
H716        H  0.83396723  0.45463423  0.83564289     0.11000
H717        H  0.85674155  0.39204963  0.84765671     0.11000
H718        H  0.93544193  0.40340022  0.75757613     0.11000
C719        C  0.67524002  0.61310334  0.81994841    -0.15100
C720        C  0.68993099  0.61451401  0.78369181     0.07000
C721        C  0.67270330  0.63689688  0.75692736    -0.15100
C722        C  0.64323043  0.65997883  0.76704332    -0.15100
C723        C  0.63105322  0.66135067  0.80407262     0.07000
C724        C  0.64610788  0.63682921  0.83024480    -0.15100
H725        H  0.68866970  0.59648276  0.84115385     0.11000
H726        H  0.68377678  0.63847995  0.72892346     0.11000
H727        H  0.63197803  0.67906263  0.74670427     0.11000
H728        H  0.63751740  0.63823845  0.85912298     0.11000
C729        C  0.13771689  0.68678591  0.34220962    -0.15100
C730        C  0.16974532  0.70864705  0.34708183     0.07000
C731        C  0.17395427  0.74129513  0.32627586    -0.15100
C732        C  0.14876360  0.74994619  0.29836930    -0.15100
C733        C  0.11909553  0.72589329  0.29055007     0.07000
C734        C  0.11241710  0.69538004  0.31390685    -0.15100
H735        H  0.13378919  0.66161096  0.35816527     0.11000
H736        H  0.19812216  0.75888115  0.32978917     0.11000
H737        H  0.15415413  0.77388470  0.28095839     0.11000
H738        H  0.08967596  0.67640780  0.30819737     0.11000
C739        C  0.25036453  0.54850194  0.29884878    -0.15100
C740        C  0.22278411  0.52311054  0.30976872     0.07000
C741        C  0.21041613  0.52379511  0.34699100    -0.15100
C742        C  0.22312675  0.55119421  0.37180681    -0.15100
C743        C  0.24840507  0.57845012  0.35984392     0.07000
C744        C  0.26300227  0.57581509  0.32357030    -0.15100
H745        H  0.26090598  0.54846640  0.27060554     0.11000
H746        H  0.18946622  0.50434517  0.35644988     0.11000
H747        H  0.21123655  0.55255287  0.39947894     0.11000
H748        H  0.28269286  0.59626654  0.31352397     0.11000
C749        C  0.25687558  0.81625226  0.36096097    -0.15100
C750        C  0.28759566  0.80417612  0.38174878     0.07000
C751        C  0.32233465  0.82100451  0.37618725    -0.15100
C752        C  0.32663930  0.84846614  0.34908535    -0.15100
C753        C  0.29653325  0.85851578  0.32625841     0.07000
C754        C  0.26136508  0.84288384  0.33300037    -0.15100
H755        H  0.23005247  0.80305650  0.36452390     0.11000
H756        H  0.34663215  0.81103997  0.39097714     0.11000
H757        H  0.35413112  0.85980213  0.34407951     0.11000
H758        H  0.23775663  0.85025501  0.31577579     0.11000
C759        C  0.43817823  0.67708198  0.35922897    -0.15100
C760        C  0.45830344  0.70897959  0.36977176     0.07000
C761        C  0.44470938  0.73095127  0.39919858    -0.15100
C762        C  0.41023865  0.72310056  0.41544372    -0.15100
C763        C  0.38850202  0.69325231  0.40244760     0.07000
C764        C  0.40356978  0.66935465  0.37533903    -0.15100
H765        H  0.44807577  0.65929458  0.33696390     0.11000
H766        H  0.45966419  0.75551101  0.40826188     0.11000
H767        H  0.39945138  0.74208724  0.43625590     0.11000
H768        H  0.38759910  0.64599714  0.36489580     0.11000
C769        C  0.60542043  0.68719141  0.16947141    -0.15100
C770        C  0.60587439  0.72066160  0.18964639     0.07000
C771        C  0.63283224  0.74744943  0.18111553    -0.15100
C772        C  0.66103126  0.73978030  0.15549239    -0.15100
C773        C  0.66251798  0.70508109  0.13753658     0.07000
C774        C  0.63334163  0.67962506  0.14322730    -0.15100
H775        H  0.58565014  0.66561078  0.17651017     0.11000
H776        H  0.63411999  0.77316658  0.19702091     0.11000
H777        H  0.68283781  0.76008693  0.15131808     0.11000
H778        H  0.63378965  0.65262982  0.12970956     0.11000
C779        C  0.44644941  0.80893963  0.23973265    -0.15100
C780        C  0.47475240  0.82129743  0.26375693     0.07000
C781        C  0.47502283  0.85893545  0.27473110    -0.15100
C782        C  0.44642132  0.88304943  0.26361151    -0.15100
C783        C  0.41694845  0.86993650  0.24143241     0.07000
C784        C  0.41795933  0.83290351  0.22875517    -0.15100
H785        H  0.44535019  0.78023311  0.23065428     0.11000
H786        H  0.49646106  0.86937807  0.29322404     0.11000
H787        H  0.44623182  0.91127135  0.27416294     0.11000
H788        H  0.39566129  0.82184282  0.21167367     0.11000
C789        C  0.51159439  0.15244376  0.71390305    -0.15100
C790        C  0.51148156  0.18890975  0.72839055     0.07000
C791        C  0.53821463  0.19864085  0.75512679    -0.15100
C792        C  0.56652218  0.17352570  0.76450438    -0.15100
C793        C  0.56831206  0.13801866  0.74775254     0.07000
C794        C  0.53953436  0.12715899  0.72369450    -0.15100
H795        H  0.49104332  0.14407021  0.69343630     0.11000
H796        H  0.53885518  0.22647070  0.76668019     0.11000
H797        H  0.58830806  0.18269576  0.78327747     0.11000
H798        H  0.54017852  0.10019757  0.71022454     0.11000
C799        C  0.34646633  0.26577432  0.80645224    -0.15100
C800        C  0.37556818  0.28913604  0.79534844     0.07000
C801        C  0.38334114  0.32133210  0.81642874    -0.15100
C802        C  0.35992099  0.33166013  0.84606033    -0.15100
C803        C  0.32896726  0.30958530  0.85477786     0.07000
C804        C  0.32358398  0.27606130  0.83583804    -0.15100
H805        H  0.33983527  0.24090463  0.79071658     0.11000
H806        H  0.40537565  0.34006824  0.80798236     0.11000
H807        H  0.36416489  0.35806225  0.85998790     0.11000
H808        H  0.29951533  0.25904157  0.84222845     0.11000
C809        C  0.35524920  0.43982362  0.67213078    -0.15100
C810        C  0.37080218  0.46334142  0.69935086     0.07000
C811        C  0.40283216  0.45129561  0.71847186    -0.15100
C812        C  0.41739850  0.41558523  0.71218929    -0.15100
C813        C  0.39974960  0.39112848  0.68721560     0.07000
C814        C  0.36930429  0.40405603  0.66644247    -0.15100
H815        H  0.33061884  0.44809121  0.65687305     0.11000
H816        H  0.41553851  0.46876666  0.73955068     0.11000
H817        H  0.44065340  0.40614513  0.72885744     0.11000
H818        H  0.35514724  0.38572848  0.64706228     0.11000
C819        C  0.32796991  0.62487802  0.58955099    -0.15100
C820        C  0.30349556  0.59854130  0.60470757     0.07000
C821        C  0.27366831  0.58554596  0.58286418    -0.15100
C822        C  0.26675472  0.60078085  0.54777034    -0.15100
C823        C  0.28971993  0.62908877  0.53374074     0.07000
C824        C  0.32126445  0.63985938  0.55436352    -0.15100
H825        H  0.35125448  0.63531233  0.60567119     0.11000
H826        H  0.25419253  0.56539049  0.59386922     0.11000
H827        H  0.24233210  0.59175213  0.53252224     0.11000
H828        H  0.33970059  0.66140278  0.54425714     0.11000
C829        C  0.27298655  0.48839651  0.84723270    -0.15100
C830        C  0.26337201  0.48660842  0.80931181     0.07000
C831        C  0.23845819  0.45887816  0.79735074    -0.15100
C832        C  0.22554214  0.43197625  0.82220563    -0.15100
C833        C  0.23751916  0.43208863  0.85944190     0.07000
C834        C  0.26033712  0.46129600  0.87200001    -0.15100
H835        H  0.29182553  0.50962986  0.85743571     0.11000
H836        H  0.23038140  0.45681779  0.76836460     0.11000
H837        H  0.20842390  0.40952582  0.81158389     0.11000
H838        H  0.27009504  0.46201413  0.90053553     0.11000
C839        C  0.32334628  0.65497149  0.85689074    -0.15100
C840        C  0.29787657  0.64864550  0.82778527     0.07000
C841        C  0.26345363  0.66701728  0.82849009    -0.15100
C842        C  0.25586240  0.69357645  0.85566187    -0.15100
C843        C  0.28260627  0.70256356  0.88253968     0.07000
C844        C  0.31588880  0.68219854  0.88396043    -0.15100
H845        H  0.35013012  0.64118404  0.85696381     0.11000
H846        H  0.24322494  0.66255245  0.80666466     0.11000
H847        H  0.23051761  0.70966986  0.85356213     0.11000
H848        H  0.33738731  0.68966824  0.90379025     0.11000
C849        C  0.44980074  0.62660295  0.76273649    -0.15100
C850        C  0.42200364  0.63770715  0.73773427     0.07000
C851        C  0.42430025  0.67328190  0.72160597    -0.15100
C852        C  0.45203087  0.69833947  0.73262140    -0.15100
C853        C  0.47752934  0.68838468  0.76033762     0.07000
C854        C  0.47711083  0.65187838  0.77422167    -0.15100
H855        H  0.44862779  0.59953696  0.77576996     0.11000
H856        H  0.40317987  0.68259230  0.70223852     0.11000
H857        H  0.45179282  0.72629938  0.72157082     0.11000
H858        H  0.49683647  0.64348966  0.79540748     0.11000
C859        C  0.58929771  0.55890266  0.26223528    -0.15100
C860        C  0.61504755  0.54342034  0.28719673     0.07000
C861        C  0.62455662  0.56356096  0.31951138    -0.15100
C862        C  0.61111866  0.59955707  0.32513802    -0.15100
C863        C  0.58747812  0.61600264  0.29885397     0.07000
C864        C  0.57547947  0.59478634  0.26812592    -0.15100
H865        H  0.58135638  0.54412093  0.23714251     0.11000
H866        H  0.64417550  0.55240882  0.33945049     0.11000
H867        H  0.62063128  0.61515782  0.34917287     0.11000
H868        H  0.55733830  0.60678870  0.24729778     0.11000
C869        C  0.67249907  0.34716862  0.13850287    -0.15100
C870        C  0.69569019  0.35313215  0.16949691     0.07000
C871        C  0.72764032  0.33107940  0.17370815    -0.15100
C872        C  0.73449173  0.30157164  0.14957740    -0.15100
C873        C  0.70987540  0.29367715  0.12031696     0.07000
C874        C  0.67963226  0.31760241  0.11395209    -0.15100
H875        H  0.64763984  0.36370855  0.13464938     0.11000
H876        H  0.74627597  0.33517727  0.19705821     0.11000
H877        H  0.75790038  0.28361712  0.15519046     0.11000
H878        H  0.65999810  0.31177361  0.09178429     0.11000
C879        C  0.56563580  0.33235786  0.26089466    -0.15100
C880        C  0.56794088  0.36902470  0.24767462     0.07000
C881        C  0.53980336  0.38205810  0.22385541    -0.15100
C882        C  0.51158472  0.35808674  0.21139652    -0.15100
C883        C  0.51089677  0.32064375  0.22259509     0.07000
C884        C  0.53746117  0.30849167  0.24855573    -0.15100
H885        H  0.58679409  0.32145089  0.27935131     0.11000
H886        H  0.54089554  0.41006384  0.21298551     0.11000
H887        H  0.49136441  0.36842782  0.19161689     0.11000
H888        H  0.53755375  0.27997975  0.25808423     0.11000
C889        C  0.74679894  0.55268392  0.19499924    -0.15100
C890        C  0.72448493  0.52318416  0.18242761     0.07000
C891        C  0.71604886  0.52092934  0.14411904    -0.15100
C892        C  0.72763637  0.54887536  0.11948508    -0.15100
C893        C  0.74792571  0.57960613  0.13267221     0.07000
C894        C  0.75840689  0.58043347  0.17047313    -0.15100
H895        H  0.75402362  0.55523095  0.22417317     0.11000
H896        H  0.69899885  0.49846144  0.13344145     0.11000
H897        H  0.71889544  0.54749587  0.09065379     0.11000
H898        H  0.77411292  0.60363810  0.18164171     0.11000
C899        C  0.66466228  0.36699369  0.43732388    -0.15100
C900        C  0.69450611  0.37937932  0.45951321     0.07000
C901        C  0.71549965  0.40999233  0.44718006    -0.15100
C902        C  0.70877313  0.42575988  0.41213925    -0.15100
C903        C  0.68107531  0.41108358  0.38857712     0.07000
C904        C  0.65812248  0.38255087  0.40226585    -0.15100
H905        H  0.64773785  0.34365517  0.44597836     0.11000
H906        H  0.73848549  0.42045870  0.46369292     0.11000
H907        H  0.72694032  0.44774829  0.40251877     0.11000
H908        H  0.63640421  0.37070076  0.38497940     0.11000
C909        C  0.58664474  0.33140541  0.61610066    -0.15100
C910        C  0.60181876  0.30727460  0.58936288     0.07000
C911        C  0.57913362  0.27925866  0.57394713    -0.15100
C912        C  0.54305524  0.27350797  0.58738447    -0.15100
C913        C  0.52919738  0.29563804  0.61646563     0.07000
C914        C  0.55066173  0.32561611  0.62954263    -0.15100
H915        H  0.60330865  0.35348026  0.62814268     0.11000
H916        H  0.59011331  0.26014447  0.55335156     0.11000
H917        H  0.52715958  0.25005922  0.57701869     0.11000
H918        H  0.54040058  0.34332097  0.65172229     0.11000
C919        C  0.72866759  0.16036038  0.65385657    -0.15100
C920        C  0.69351491  0.14366553  0.65708129     0.07000
C921        C  0.66668164  0.15008150  0.62933220    -0.15100
C922        C  0.67343752  0.17623614  0.60137420    -0.15100
C923        C  0.70734824  0.19553369  0.60044920     0.07000
C924        C  0.73558850  0.18590412  0.62555341    -0.15100
H925        H  0.74998695  0.15544351  0.67454746     0.11000
H926        H  0.63935810  0.13746227  0.63118208     0.11000
H927        H  0.65088981  0.18419092  0.58301851     0.11000
H928        H  0.76158743  0.20116117  0.62576543     0.11000
C929        C  0.82981841  0.26516686  0.65655035    -0.15100
C930        C  0.82585453  0.30047435  0.64049737     0.07000
C931        C  0.85210097  0.32820476  0.64909870    -0.15100
C932        C  0.87949943  0.32180979  0.67609974    -0.15100
C933        C  0.88152649  0.28738692  0.69416946     0.07000
C934        C  0.85756822  0.25865742  0.68302988    -0.15100
H935        H  0.81016199  0.24323059  0.65020054     0.11000
H936        H  0.84952683  0.35573172  0.63729505     0.11000
H937        H  0.89683095  0.34473124  0.68529424     0.11000
H938        H  0.85813719  0.23222694  0.69730099     0.11000
C939        C  0.72119968  0.42418476  0.67157862    -0.15100
C940        C  0.73576680  0.42230959  0.63517121     0.07000
C941        C  0.75925554  0.45087718  0.62290865    -0.15100
C942        C  0.77026626  0.47910390  0.64731130    -0.15100
C943        C  0.75751185  0.47982870  0.68432934     0.07000
C944        C  0.73171941  0.45294662  0.69587213    -0.15100
H945        H  0.70312212  0.40240759  0.68184207     0.11000
H946        H  0.77124220  0.45002690  0.59525557     0.11000
H947        H  0.79009236  0.49961115  0.63763770     0.11000
H948        H  0.72164196  0.45276969  0.72428741     0.11000
C949        C  0.81558553  0.39992108  0.31884823    -0.15100
C950        C  0.79491631  0.39955262  0.28569635     0.07000
C951        C  0.80568212  0.37610438  0.25645118    -0.15100
C952        C  0.83450017  0.35069801  0.26148438    -0.15100
C953        C  0.85327835  0.34891678  0.29564536     0.07000
C954        C  0.84502839  0.37487237  0.32367947    -0.15100
H955        H  0.80685677  0.41712784  0.34205941     0.11000
H956        H  0.78951098  0.37506470  0.23101691     0.11000
H957        H  0.84025483  0.33052537  0.23976872     0.11000
H958        H  0.85878961  0.37329790  0.35046853     0.11000
C959        C  0.86597020  0.27788071  0.44241995    -0.15100
C960        C  0.85384018  0.25372734  0.41400543     0.07000
C961        C  0.81816898  0.23785764  0.41684871    -0.15100
C962        C  0.79430641  0.24790129  0.44605363    -0.15100
C963        C  0.80567587  0.27386795  0.47314728     0.07000
C964        C  0.84223071  0.28774640  0.47166784    -0.15100
H965        H  0.89323727  0.29068051  0.44109577     0.11000
H966        H  0.80786354  0.21934879  0.39534846     0.11000
H967        H  0.76638772  0.23652679  0.44649993     0.11000
H968        H  0.85195882  0.30770553  0.49211479     0.11000
C969        C  0.00743643  0.35555829  0.26269536    -0.15100
C970        C  0.00932672  0.31795997  0.25185739     0.07000
C971        C  0.03868295  0.30630790  0.22903013    -0.15100
C972        C  0.06762319  0.33092669  0.22043529    -0.15100
C973        C  0.06744289  0.36773862  0.23412582     0.07000
C974        C  0.03609482  0.38032409  0.25367287    -0.15100
H975        H  0.98480563  0.36524192  0.28013194     0.11000
H976        H  0.04084549  0.27750174  0.22047266     0.11000
H977        H  0.09133027  0.32043936  0.20503247     0.11000
H978        H  0.03506674  0.40842201  0.26450859     0.11000
C979        C  0.87957654  0.17942044  0.17261339    -0.15100
C980        C  0.87486989  0.21492881  0.18847644     0.07000
C981        C  0.84931883  0.23963061  0.17265327    -0.15100
C982        C  0.82668179  0.22800803  0.14336795    -0.15100
C983        C  0.82868992  0.19143567  0.13013260     0.07000
C984        C  0.85616471  0.16750830  0.14374349    -0.15100
H985        H  0.89881499  0.15976795  0.18484776     0.11000
H986        H  0.84524064  0.26706173  0.18448917     0.11000
H987        H  0.80558995  0.24662759  0.13282835     0.11000
H988        H  0.85752536  0.13896439  0.13417850     0.11000
C989        C  0.30976728  0.13446505  0.72935825    -0.15100
C990        C  0.29664357  0.11154944  0.70062475     0.07000
C991        C  0.31423076  0.11218129  0.66575229    -0.15100
C992        C  0.34313040  0.13738853  0.65901182    -0.15100
C993        C  0.35407626  0.16234254  0.68699711     0.07000
C994        C  0.33822577  0.15989361  0.72252535    -0.15100
H995        H  0.29569925  0.13505405  0.75601682     0.11000
H996        H  0.30341617  0.09562307  0.64292456     0.11000
H997        H  0.35453310  0.13968636  0.63119469     0.11000
H998        H  0.34600508  0.17950350  0.74414016     0.11000
C999        C  0.17752379  0.18534402  0.87765525    -0.15100
C1000       C  0.20934685  0.20764183  0.87330846     0.07000
C1001       C  0.23600993  0.19764365  0.84678701    -0.15100
C1002       C  0.22941511  0.16876776  0.82207119    -0.15100
C1003       C  0.19570822  0.14921577  0.82334583     0.07000
C1004       C  0.17070118  0.15609576  0.85266605    -0.15100
H1005       H  0.15650796  0.19254407  0.89805340     0.11000
H1006       H  0.26124721  0.21381716  0.84347485     0.11000
H1007       H  0.24958262  0.16341622  0.80031563     0.11000
H1008       H  0.14461865  0.14105839  0.85437766     0.11000
C1009       C  0.04056386  0.12654913  0.76377533    -0.15100
C1010       C  0.06967237  0.14009651  0.74147713     0.07000
C1011       C  0.06856623  0.17744007  0.73004348    -0.15100
C1012       C  0.04035734  0.20120698  0.74233889    -0.15100
C1013       C  0.01247886  0.18833509  0.76650541     0.07000
C1014       C  0.01228465  0.15045198  0.77623115    -0.15100
H1015       H  0.04080653  0.09806510  0.77337905     0.11000
H1016       H  0.09057527  0.18884286  0.71291855     0.11000
H1017       H  0.04134334  0.23011828  0.73413729     0.11000
H1018       H  0.99113502  0.13959607  0.79471727     0.11000
C1019       C  0.21796657  0.98788099  0.84305826    -0.15100
C1020       C  0.22675419  0.98566099  0.80485213     0.07000
C1021       C  0.24963631  0.95656089  0.79251345    -0.15100
C1022       C  0.26083830  0.92869743  0.81708086    -0.15100
C1023       C  0.24942296  0.92918307  0.85461055     0.07000
C1024       C  0.22919619  0.95990536  0.86770886    -0.15100
H1025       H  0.20071672  0.01022346  0.85359247     0.11000
H1026       H  0.25726657  0.95418905  0.76343611     0.11000
H1027       H  0.27669646  0.90554967  0.80608492     0.11000
H1028       H  0.21994767  0.96110425  0.89637892     0.11000
C1029       C  0.32604633  0.24274436  0.32846804    -0.15100
C1030       C  0.32515159  0.20890038  0.34771252     0.07000
C1031       C  0.35465990  0.18364455  0.34292604    -0.15100
C1032       C  0.38236197  0.19050918  0.31630124    -0.15100
C1033       C  0.38120270  0.22301686  0.29491302     0.07000
C1034       C  0.35393910  0.24977036  0.30249403    -0.15100
H1035       H  0.30390120  0.26283874  0.33176961     0.11000
H1036       H  0.35462532  0.15731970  0.35743152     0.11000
H1037       H  0.40244260  0.16896521  0.30994343     0.11000
H1038       H  0.35206127  0.27450031  0.28558991     0.11000
C1039       C  0.23691812  0.05403033  0.29438262    -0.15100
C1040       C  0.26062839  0.02579991  0.30715240     0.07000
C1041       C  0.27092098  0.02573569  0.34501259    -0.15100
C1042       C  0.25973261  0.05456325  0.36889288    -0.15100
C1043       C  0.23810338  0.08409472  0.35537448     0.07000
C1044       C  0.22584884  0.08280613  0.31816350    -0.15100
H1045       H  0.22830880  0.05490630  0.26550099     0.11000
H1046       H  0.28910656  0.00434620  0.35581163     0.11000
H1047       H  0.26989730  0.05487934  0.39728163     0.11000
H1048       H  0.20913604  0.10510415  0.30682845     0.11000
C1049       C  0.34156672  0.22448380  0.51274095    -0.15100
C1050       C  0.30507951  0.23857757  0.51206249     0.07000
C1051       C  0.29467820  0.26507458  0.53896903    -0.15100
C1052       C  0.31948261  0.27523468  0.56743158    -0.15100
C1053       C  0.35495280  0.25880289  0.56963266     0.07000
C1054       C  0.36610986  0.23434552  0.54121459    -0.15100
H1055       H  0.35062763  0.20415297  0.49238177     0.11000
H1056       H  0.26685690  0.27664207  0.53902492     0.11000
H1057       H  0.31000909  0.29406329  0.58901163     0.11000
H1058       H  0.39320442  0.22118515  0.54205031     0.11000
C1059       C  0.05122057  0.18515797  0.35181641    -0.15100
C1060       C  0.02891743  0.21385403  0.36636849     0.07000
C1061       C  0.04177759  0.23380459  0.39748076    -0.15100
C1062       C  0.07744892  0.22713208  0.41184024    -0.15100
C1063       C  0.10087288  0.20033811  0.39538299     0.07000
C1064       C  0.08674925  0.17845398  0.36616182    -0.15100
H1065       H  0.04192050  0.16902259  0.32804619     0.11000
H1066       H  0.02530384  0.25616177  0.40917846     0.11000
H1067       H  0.08750919  0.24456362  0.43433520     0.11000
H1068       H  0.10390489  0.15744385  0.35301822     0.11000
C1069       C  0.16606386  0.14460177  0.55233096    -0.15100
C1070       C  0.19581801  0.13221639  0.53007541     0.07000
C1071       C  0.21756794  0.10237618  0.54278513    -0.15100
C1072       C  0.21126984  0.08693718  0.57794377    -0.15100
C1073       C  0.18329033  0.10121066  0.60131961     0.07000
C1074       C  0.15998117  0.12938854  0.58761783    -0.15100
H1075       H  0.14874721  0.16752542  0.54341721     0.11000
H1076       H  0.24064614  0.09210843  0.52632391     0.11000
H1077       H  0.22986192  0.06539417  0.58770580     0.11000
H1078       H  0.13817967  0.14100070  0.60491390     0.11000
C1079       C  0.23344444  0.32093898  0.35875047    -0.15100
C1080       C  0.20538444  0.31138260  0.38402373     0.07000
C1081       C  0.17180861  0.33118268  0.38397921    -0.15100
C1082       C  0.16509257  0.35788123  0.35656622    -0.15100
C1083       C  0.19163135  0.36424731  0.32855727     0.07000
C1084       C  0.22661676  0.34711171  0.33109098    -0.15100
H1085       H  0.25922746  0.30540766  0.35807014     0.11000
H1086       H  0.14948010  0.32336226  0.40265175     0.11000
H1087       H  0.13795556  0.37090671  0.35527188     0.11000
H1088       H  0.24775199  0.35200951  0.31017971     0.11000
C1089       C  0.15916466  0.66806333  0.72989408    -0.15100
C1090       C  0.13961619  0.66861680  0.69606952     0.07000
C1091       C  0.14480426  0.63931023  0.67055858    -0.15100
C1092       C  0.17209117  0.61224406  0.67711938    -0.15100
C1093       C  0.19372897  0.61378881  0.70960207     0.07000
C1094       C  0.18580428  0.64077722  0.73661195    -0.15100
H1095       H  0.15553226  0.69002358  0.75020899     0.11000
H1096       H  0.13007483  0.63907441  0.64424242     0.11000
H1097       H  0.17859280  0.59229341  0.65543263     0.11000
H1098       H  0.20267741  0.64273911  0.76146002     0.11000
C1099       C  0.14402646  0.72595417  0.51178579    -0.15100
C1100       C  0.18158088  0.73737654  0.51261870     0.07000
C1101       C  0.19316459  0.76147342  0.54119211    -0.15100
C1102       C  0.16870990  0.77130626  0.56988838    -0.15100
C1103       C  0.13208173  0.75729291  0.57073096     0.07000
C1104       C  0.11951985  0.73583612  0.54053159    -0.15100
H1105       H  0.13405638  0.70759140  0.49000692     0.11000
H1106       H  0.22171376  0.77109325  0.54253425     0.11000
H1107       H  0.17919142  0.78822432  0.59259515     0.11000
H1108       H  0.09154635  0.72458341  0.54036003     0.11000
C1109       C  0.07576298  0.91502386  0.71353807    -0.15100
C1110       C  0.09066054  0.89211269  0.68546015     0.07000
C1111       C  0.11767715  0.90685967  0.66142861    -0.15100
C1112       C  0.13135016  0.94285627  0.66698597    -0.15100
C1113       C  0.11859691  0.96468255  0.69697207     0.07000
C1114       C  0.08973098  0.95085306  0.71936672    -0.15100
H1115       H  0.05495955  0.90445677  0.73258773     0.11000
H1116       H  0.12955494  0.88994958  0.63944784     0.11000
H1117       H  0.15352524  0.95269276  0.64912424     0.11000
H1118       H  0.07923349  0.96696766  0.74261039     0.11000
C1119       C  0.94497425  0.70237270  0.74940737    -0.15100
C1120       C  0.97337344  0.68993009  0.72544111     0.07000
C1121       C  0.97372798  0.65231580  0.71476600    -0.15100
C1122       C  0.94502009  0.62840415  0.72553355    -0.15100
C1123       C  0.91527152  0.64140624  0.74740638     0.07000
C1124       C  0.91626283  0.67833292  0.76035128    -0.15100
H1125       H  0.94396269  0.73113221  0.75830999     0.11000
H1126       H  0.99526569  0.64168985  0.69653412     0.11000
H1127       H  0.94515767  0.60014359  0.71507338     0.11000
H1128       H  0.89366126  0.68931927  0.77701291     0.11000
C1129       C  0.12952939  0.76223049  0.80701413    -0.15100
C1130       C  0.10313513  0.78942547  0.79817519     0.07000
C1131       C  0.10299570  0.82300868  0.81811045    -0.15100
C1132       C  0.13103738  0.83047139  0.84426600    -0.15100
C1133       C  0.15990806  0.80472279  0.84996092     0.07000
C1134       C  0.15783717  0.76986407  0.83247627    -0.15100
H1135       H  0.13051739  0.73652420  0.79130980     0.11000
H1136       H  0.08356146  0.84479723  0.81079998     0.11000
H1137       H  0.13193552  0.85753409  0.85752123     0.11000
H1138       H  0.17938090  0.74934018  0.83673509     0.11000
C1139       C  0.85238515  0.06915266  0.31318826    -0.15100
C1140       C  0.86980790  0.04513538  0.28759310     0.07000
C1141       C  0.90200380  0.05767935  0.26912407    -0.15100
C1142       C  0.91535409  0.09395988  0.27484816    -0.15100
C1143       C  0.89630635  0.11863181  0.29851630     0.07000
C1144       C  0.86519109  0.10557550  0.31820732    -0.15100
H1145       H  0.82741984  0.06057367  0.32771687     0.11000
H1146       H  0.91599195  0.03996028  0.24912692     0.11000
H1147       H  0.93905329  0.10349838  0.25886889     0.11000
H1148       H  0.84985386  0.12408019  0.33643707     0.11000
C1149       C  0.76884617  0.84510542  0.15235652    -0.15100
C1150       C  0.80525568  0.85808185  0.15811668     0.07000
C1151       C  0.83357420  0.84694431  0.13353047    -0.15100
C1152       C  0.82617395  0.82019014  0.10603935    -0.15100
C1153       C  0.79024898  0.80518308  0.10230188     0.07000
C1154       C  0.76137943  0.81901608  0.12452322    -0.15100
H1155       H  0.74654179  0.85354005  0.17082177     0.11000
H1156       H  0.86190798  0.85645285  0.13761727     0.11000
H1157       H  0.84908367  0.80877091  0.09006409     0.11000
H1158       H  0.73380805  0.80689726  0.12282568     0.11000
C1159       C  0.95639929  0.80996301  0.25936238    -0.15100
C1160       C  0.98129345  0.81929212  0.23089904     0.07000
C1161       C  0.98087883  0.85558938  0.21646151    -0.15100
C1162       C  0.95373854  0.88104719  0.22771388    -0.15100
C1163       C  0.92616354  0.87033018  0.25308237     0.07000
C1164       C  0.92883130  0.83523307  0.27018970    -0.15100
H1165       H  0.95625511  0.78221919  0.27094474     0.11000
H1166       H  0.00022005  0.86353787  0.19475765     0.11000
H1167       H  0.95227029  0.90773996  0.21396528     0.11000
H1168       H  0.90788854  0.82630457  0.28993155     0.11000
C1169       C  0.76105100  0.04133407  0.11483370    -0.15100
C1170       C  0.73600121  0.06888076  0.12684254     0.07000
C1171       C  0.72239043  0.06734762  0.16348764    -0.15100
C1172       C  0.73633565  0.04110242  0.18855592    -0.15100
C1173       C  0.76396429  0.01573737  0.17739401     0.07000
C1174       C  0.77481429  0.01498377  0.13980579    -0.15100
H1175       H  0.77194427  0.04167088  0.08672151     0.11000
H1176       H  0.70322744  0.08825797  0.17365771     0.11000
H1177       H  0.72695660  0.04204378  0.21719349     0.11000
H1178       H  0.79557711  0.99541089  0.13011985     0.11000
C1179       C  0.67816004  0.89125598  0.31428665    -0.15100
C1180       C  0.69661721  0.89120998  0.27988735     0.07000
C1181       C  0.68531805  0.86642556  0.25195523    -0.15100
C1182       C  0.65791888  0.84006414  0.25929804    -0.15100
C1183       C  0.64139031  0.83800560  0.29459706     0.07000
C1184       C  0.65035049  0.86496403  0.32154796    -0.15100
H1185       H  0.68756580  0.90937522  0.33660850     0.11000
H1186       H  0.70000438  0.86537728  0.22566793     0.11000
H1187       H  0.65122634  0.81969295  0.23792283     0.11000
H1188       H  0.63817741  0.86375320  0.34906799     0.11000
C1189       C  0.90353170  0.83643084  0.61035933    -0.15100
C1190       C  0.88815145  0.81127504  0.58460074     0.07000
C1191       C  0.90986744  0.78124766  0.57219097    -0.15100
C1192       C  0.94480579  0.77450169  0.58787542    -0.15100
C1193       C  0.95884957  0.79785679  0.61602705     0.07000
C1194       C  0.93862430  0.82986663  0.62582555    -0.15100
H1195       H  0.88749975  0.85994410  0.62026549     0.11000
H1196       H  0.89872528  0.76129507  0.55246950     0.11000
H1197       H  0.95977682  0.74973479  0.57952675     0.11000
H1198       H  0.94880730  0.84861110  0.64718038     0.11000
C1199       C  0.81938076  0.86093717  0.43158211    -0.15100
C1200       C  0.79167462  0.87654505  0.45449496     0.07000
C1201       C  0.77323861  0.90870621  0.44231155    -0.15100
C1202       C  0.78056455  0.92327621  0.40685487    -0.15100
C1203       C  0.80614810  0.90568871  0.38287278     0.07000
C1204       C  0.82639161  0.87519061  0.39622632    -0.15100
H1205       H  0.83426104  0.83619587  0.44000907     0.11000
H1206       H  0.75199459  0.92154599  0.45941923     0.11000
H1207       H  0.76455940  0.94691933  0.39740722     0.11000
H1208       H  0.84632304  0.86099740  0.37859602     0.11000
C1209       C  0.67273918  0.76339200  0.66200474    -0.15100
C1210       C  0.66889546  0.79583606  0.64074454     0.07000
C1211       C  0.63703008  0.81795440  0.64550839    -0.15100
C1212       C  0.61153828  0.80973930  0.67387096    -0.15100
C1213       C  0.61783253  0.77940036  0.69758220     0.07000
C1214       C  0.64750048  0.75526534  0.69009330    -0.15100
H1215       H  0.69667803  0.74548912  0.65868253     0.11000
H1216       H  0.63328633  0.84297894  0.62929058     0.11000
H1217       H  0.58890260  0.82885989  0.67930089     0.11000
H1218       H  0.65283255  0.73157274  0.70780133     0.11000
C1219       C  0.76274240  0.92566830  0.66901002    -0.15100
C1220       C  0.75087600  0.92448460  0.63164482     0.07000
C1221       C  0.72922365  0.95398977  0.61810786    -0.15100
C1222       C  0.71731139  0.98243043  0.64206688    -0.15100
C1223       C  0.72687240  0.98209253  0.68009005     0.07000
C1224       C  0.75097001  0.95416241  0.69291414    -0.15100
H1225       H  0.77960457  0.90347502  0.68032927     0.11000
H1226       H  0.71950324  0.95389812  0.58956655     0.11000
H1227       H  0.69905587  0.00369644  0.63114826     0.11000
H1228       H  0.75921756  0.95321150  0.72190147     0.11000
C1229       C  0.82041434  0.67712144  0.59998168    -0.15100
C1230       C  0.78701640  0.69740826  0.60036486     0.07000
C1231       C  0.75812364  0.68622850  0.62394748    -0.15100
C1232       C  0.76357380  0.65738975  0.64924549    -0.15100
C1233       C  0.79782975  0.63876249  0.65087028     0.07000
C1234       C  0.82565365  0.64756637  0.62488945    -0.15100
H1235       H  0.84341863  0.68607249  0.58269503     0.11000
H1236       H  0.73249087  0.70195091  0.62502056     0.11000
H1237       H  0.74199900  0.65141406  0.66944416     0.11000
H1238       H  0.85257036  0.63409944  0.62630141     0.11000
C1239       C  0.69112355  0.74413269  0.44844556    -0.15100
C1240       C  0.68036144  0.77011866  0.47561574     0.07000
C1241       C  0.64321194  0.78270591  0.47579753    -0.15100
C1242       C  0.61843221  0.77209042  0.44750951    -0.15100
C1243       C  0.63036288  0.74877664  0.41845104     0.07000
C1244       C  0.66642311  0.73360399  0.42020007    -0.15100
H1245       H  0.71929416  0.73345866  0.44777775     0.11000
H1246       H  0.63385868  0.80247267  0.49657402     0.11000
H1247       H  0.59089143  0.78429859  0.44692076     0.11000
H1248       H  0.67636137  0.71527700  0.39838834     0.11000
loop_ 
_geom_bond_atom_site_label_1 
_geom_bond_atom_site_label_2 
_geom_bond_distance 
_geom_bond_site_symmetry_2 
_ccdc_geom_bond_type 
O1           C16   1.271       .  A
O1           Al9   1.939       .  S
C2           O12   1.272       .  A
C2            O3   1.263       .  A
C2         C1210   1.475       .  S
O3           Al5   1.869       .  S
O4            C6   1.258       .  A
O4           Al5   1.913       .  S
Al5          O13   1.905       .  S
Al5          O15   1.891       .  S
Al5          O14   1.778       .  S
C6           O19   1.259       .  A
C6         C1230   1.468       .  S
O7           C17   1.262       .  A
O7           Al9   1.919       .  S
O8           C21   1.270       .  A
O8          Al18   1.939       .  S
Al9          O22   1.876       .  S
Al9          O19   1.916       .  S
Al9          O14   1.784       .  S
O10          C17   1.256       .  A
O10         Al18   1.888       .  S
O11          C20   1.259       .  A
O11         Al18   1.914       .  S
O12         Al18   1.944       .  S
O13          C20   1.256       .  A
O14         Al18   1.788       .  S
O15          C16   1.265       .  A
C16        C1190   1.478       .  S
C17        C1240   1.487       .  S
C20        C1220   1.488       .  S
C21          O22   1.260       .  A
C21        C1200   1.485       .  S
O23          C38   1.262   1_565  A
O23         Al31   1.898       .  S
C24          O34   1.262       .  A
C24          O25   1.265       .  A
C24        C1150   1.475       .  S
O25         Al27   1.934       .  S
O26          C28   1.260       .  A
O26         Al27   1.894       .  S
Al27         O35   1.917       .  S
Al27         O37   1.925       .  S
Al27         O36   1.793       .  S
C28          O41   1.263       .  A
C28        C1173   1.484   1_565  S
O29          C39   1.257       .  A
O29         Al31   1.911       .  S
O30          C43   1.265       .  A
O30         Al40   1.892       .  S
Al31         O44   1.932       .  S
Al31         O41   1.913       .  S
Al31         O36   1.791       .  S
O32          C39   1.253       .  A
O32         Al40   1.882       .  S
O33          C42   1.256       .  A
O33         Al40   1.888       .  S
O34         Al40   1.892       .  S
O35          C42   1.263       .  A
O36         Al40   1.779       .  S
O37          C38   1.265   1_565  A
C38        C1140   1.490       .  S
C39        C1180   1.459       .  S
C42        C1163   1.477       .  S
C43          O44   1.268       .  A
C43        C1203   1.483       .  S
O45          C60   1.262   1_455  A
O45         Al53   1.894       .  S
C46          O56   1.264       .  A
C46          O47   1.267       .  A
C46        C1090   1.479       .  S
O47         Al49   1.929       .  S
O48          C50   1.259       .  A
O48         Al49   1.895       .  S
Al49         O57   1.919       .  S
Al49         O59   1.915       .  S
Al49         O58   1.788       .  S
C50          O63   1.261   1_455  A
C50        C1120   1.487   1_455  S
O51          C61   1.261       .  A
O51         Al53   1.920       .  S
O52          C65   1.265       .  A
O52         Al62   1.901       .  S
Al53         O66   1.928       .  S
Al53         O63   1.917   1_455  S
Al53         O58   1.792       .  S
O54          C61   1.255       .  A
O54         Al62   1.886       .  S
O55          C64   1.255       .  A
O55         Al62   1.891       .  S
O56         Al62   1.892       .  S
O57          C64   1.261       .  A
O58         Al62   1.778       .  S
O59          C60   1.266   1_455  A
C60        C1193   1.482       .  S
C61        C1130   1.462       .  S
C64        C1103   1.485       .  S
C65          O66   1.267       .  A
C65        C1110   1.481       .  S
O67          C82   1.263       .  A
O67         Al75   1.895       .  S
C68          O78   1.263       .  A
C68          O69   1.266       .  A
C68        C1030   1.478       .  S
O69         Al71   1.930       .  S
O70          C72   1.256       .  A
O70         Al71   1.881       .  S
Al71         O79   1.913       .  S
Al71         O81   1.921       .  S
Al71         O80   1.787       .  S
C72          O85   1.262       .  A
C72        C1050   1.484       .  S
O73          C83   1.259       .  A
O73         Al75   1.913       .  S
O74          C87   1.266       .  A
O74         Al84   1.901       .  S
Al75         O88   1.936       .  S
Al75         O85   1.923       .  S
Al75         O80   1.792       .  S
O76          C83   1.256       .  A
O76         Al84   1.890       .  S
O77          C86   1.257       .  A
O77         Al84   1.899       .  S
O78         Al84   1.892       .  S
O79          C86   1.261       .  A
O80         Al84   1.778       .  S
O81          C82   1.267       .  A
C82        C1070   1.485       .  S
C83        C1080   1.459       .  S
C86        C1043   1.485       .  S
C87          O88   1.269       .  A
C87        C1063   1.485       .  S
O89         C104   1.271       .  A
O89         Al97   1.943       .  S
C90         O100   1.267       .  A
C90          O91   1.262       .  A
C90        C1003   1.470       .  S
O91         Al93   1.874       .  S
O92          C94   1.256       .  A
O92         Al93   1.899       .  S
Al93        O101   1.898       .  S
Al93        O103   1.895       .  S
Al93        O102   1.775       .  S
C94         O107   1.258       .  A
C94         C990   1.459       .  S
O95         C105   1.264       .  A
O95         Al97   1.926       .  S
O96         C109   1.267   1_545  A
O96        Al106   1.923       .  S
Al97        O110   1.887       .  S
Al97        O107   1.910       .  S
Al97        O102   1.787       .  S
O98         C105   1.256       .  A
O98        Al106   1.887       .  S
O99         C108   1.261       .  A
O99        Al106   1.915       .  S
O100       Al106   1.930       .  S
O101        C108   1.257       .  A
O102       Al106   1.789       .  S
O103        C104   1.265       .  A
C104       C1073   1.484       .  S
C105       C1020   1.486   1_545  S
C108       C1010   1.485       .  S
C109        O110   1.261   1_565  A
C109       C1113   1.483       .  S
O111        C126   1.266       .  A
O111       Al119   1.915       .  S
C112        O122   1.259       .  A
C112        O113   1.260       .  A
C112        C953   1.465       .  S
O113       Al115   1.894       .  S
O114        C116   1.255       .  A
O114       Al115   1.888       .  S
Al115       O123   1.904       .  S
Al115       O125   1.908       .  S
Al115       O124   1.788       .  S
C116        O129   1.255       .  A
C116        C980   1.468       .  S
O117        C127   1.265       .  A
O117       Al119   1.923       .  S
O118        C131   1.264       .  A
O118       Al128   1.913       .  S
Al119       O132   1.898       .  S
Al119       O129   1.901       .  S
Al119       O124   1.803       .  S
O120        C127   1.259       .  A
O120       Al128   1.890       .  S
O121        C130   1.258       .  A
O121       Al128   1.898       .  S
O122       Al128   1.904       .  S
O123        C130   1.259       .  A
O124       Al128   1.800       .  S
O125        C126   1.264       .  A
C126       C1143   1.483       .  S
C127        C970   1.478   1_655  S
C130        C960   1.485       .  S
C131        O132   1.261       .  A
C131       C1060   1.482   1_655  S
O133        C148   1.263       .  A
O133       Al141   1.899       .  S
C134        O144   1.264       .  A
C134        O135   1.268       .  A
C134        C930   1.479       .  S
O135       Al137   1.934       .  S
O136        C138   1.259       .  A
O136       Al137   1.894       .  S
Al137       O145   1.909       .  S
Al137       O147   1.926       .  S
Al137       O146   1.785       .  S
C138        O151   1.261       .  A
C138        C963   1.485       .  S
O139        C149   1.260       .  A
O139       Al141   1.920       .  S
O140        C153   1.266       .  A
O140       Al150   1.898       .  S
Al141       O154   1.926       .  S
Al141       O151   1.912       .  S
Al141       O146   1.790       .  S
O142        C149   1.255       .  A
O142       Al150   1.885       .  S
O143        C152   1.255       .  A
O143       Al150   1.898       .  S
O144       Al150   1.898       .  S
O145        C152   1.260       .  A
O146       Al150   1.782       .  S
O147        C148   1.267       .  A
C148        C900   1.489       .  S
C149        C923   1.461       .  S
C152        C940   1.481       .  S
C153        O154   1.267       .  A
C153        C910   1.478       .  S
O155        C170   1.271       .  A
O155       Al163   1.952       .  S
C156        O166   1.269       .  A
C156        O157   1.260       .  A
C156        C870   1.478       .  S
O157       Al159   1.874       .  S
O158        C160   1.261       .  A
O158       Al159   1.910       .  S
Al159       O167   1.905       .  S
Al159       O169   1.896       .  S
Al159       O168   1.774       .  S
C160        O173   1.260       .  A
C160        C950   1.461       .  S
O161        C171   1.265       .  A
O161       Al163   1.932       .  S
O162        C175   1.271       .  A
O162       Al172   1.936       .  S
Al163       O176   1.884       .  S
Al163       O173   1.908       .  S
Al163       O168   1.784       .  S
O164        C171   1.257       .  A
O164       Al172   1.892       .  S
O165        C174   1.260       .  A
O165       Al172   1.908       .  S
O166       Al172   1.941       .  S
O167        C174   1.259       .  A
O168       Al172   1.786       .  S
O169        C170   1.263       .  A
C170        C903   1.489       .  S
C171        C890   1.489       .  S
C174        C880   1.484       .  S
C175        O176   1.262       .  A
C175        C860   1.483       .  S
O177        C192   1.264       .  A
O177       Al185   1.898       .  S
C178        O188   1.263       .  A
C178        O179   1.267       .  A
C178        C840   1.478       .  S
O179       Al181   1.936       .  S
O180        C182   1.258       .  A
O180       Al181   1.891       .  S
Al181       O189   1.914       .  S
Al181       O191   1.927       .  S
Al181       O190   1.791       .  S
C182        O195   1.261       .  A
C182        C830   1.482       .  S
O183        C193   1.260       .  A
O183       Al185   1.921       .  S
O184        C197   1.264       .  A
O184       Al194   1.894       .  S
Al185       O198   1.930       .  S
Al185       O195   1.910       .  S
Al185       O190   1.789       .  S
O186        C193   1.255       .  A
O186       Al194   1.889       .  S
O187        C196   1.255       .  A
O187       Al194   1.886       .  S
O188       Al194   1.885       .  S
O189        C196   1.261       .  A
O190       Al194   1.778       .  S
O191        C192   1.267       .  A
C192        C810   1.489       .  S
C193       C1093   1.464       .  S
C196        C850   1.478       .  S
C197        O198   1.268       .  A
C197        C820   1.479       .  S
O199        C214   1.264       .  A
O199       Al207   1.919       .  S
C200        O210   1.259       .  A
C200        O201   1.261       .  A
C200        C993   1.460       .  S
O201       Al203   1.900       .  S
O202        C204   1.256       .  A
O202       Al203   1.879       .  S
Al203       O211   1.900       .  S
Al203       O213   1.896       .  S
Al203       O212   1.784       .  S
C204        O217   1.258       .  A
C204        C800   1.473       .  S
O205        C215   1.265       .  A
O205       Al207   1.931       .  S
O206        C219   1.264       .  A
O206       Al216   1.900       .  S
Al207       O220   1.904       .  S
Al207       O217   1.914       .  S
Al207       O212   1.800       .  S
O208        C215   1.257       .  A
O208       Al216   1.891       .  S
O209        C218   1.258       .  A
O209       Al216   1.902       .  S
O210       Al216   1.897       .  S
O211        C218   1.257       .  A
O212       Al216   1.797       .  S
O213        C214   1.261       .  A
C214        C813   1.481       .  S
C215        C790   1.484       .  S
C218       C1053   1.482       .  S
C219        O220   1.264       .  A
C219        C913   1.474       .  S
O221        C236   1.264       .  A
O221       Al229   1.897       .  S
C222        O232   1.263       .  A
C222        O223   1.268       .  A
C222       C1183   1.473       .  S
O223       Al225   1.930       .  S
O224        C226   1.257       .  A
O224       Al225   1.897       .  S
Al225       O233   1.914       .  S
Al225       O235   1.917       .  S
Al225       O234   1.791       .  S
C226        O239   1.261       .  A
C226        C780   1.487       .  S
O227        C237   1.263       .  A
O227       Al229   1.929       .  S
O228        C241   1.265       .  A
O228       Al238   1.900       .  S
Al229       O242   1.929       .  S
Al229       O239   1.913       .  S
Al229       O234   1.790       .  S
O230        C237   1.256       .  A
O230       Al238   1.891       .  S
O231        C240   1.255       .  A
O231       Al238   1.892       .  S
O232       Al238   1.885       .  S
O233        C240   1.259       .  A
O234       Al238   1.778       .  S
O235        C236   1.267       .  A
C236        C760   1.484       .  S
C237        C770   1.467       .  S
C240       C1243   1.484       .  S
C241        O242   1.267       .  A
C241        C863   1.479       .  S
O243        C258   1.271       .  A
O243       Al251   1.942       .  S
C244        O254   1.269       .  A
C244        O245   1.262       .  A
C244        C730   1.468       .  S
O245       Al247   1.867       .  S
O246        C248   1.256       .  A
O246       Al247   1.901       .  S
Al247       O255   1.889       .  S
Al247       O257   1.895       .  S
Al247       O256   1.778       .  S
C248        O261   1.262       .  A
C248        C750   1.465       .  S
O249        C259   1.261       .  A
O249       Al251   1.922       .  S
O250        C263   1.269       .  A
O250       Al260   1.922       .  S
Al251       O264   1.888       .  S
Al251       O261   1.925       .  S
Al251       O256   1.785       .  S
O252        C259   1.254       .  A
O252       Al260   1.888       .  S
O253        C262   1.258       .  A
O253       Al260   1.914       .  S
O254       Al260   1.928       .  S
O255        C262   1.254       .  A
O256       Al260   1.788       .  S
O257        C258   1.265       .  A
C258        C763   1.482       .  S
C259       C1100   1.488       .  S
C262        C743   1.484       .  S
C263        O264   1.264       .  A
C263        C823   1.482       .  S
O265        C280   1.263       .  A
O265       Al273   1.907       .  S
C266        O276   1.262       .  A
C266        O267   1.258       .  A
C266       C1233   1.473       .  S
O267       Al269   1.889       .  S
O268        C270   1.254       .  A
O268       Al269   1.887       .  S
Al269       O277   1.903       .  S
Al269       O279   1.904       .  S
Al269       O278   1.790       .  S
C270        O283   1.255       .  A
C270        C720   1.468       .  S
O271        C281   1.264       .  A
O271       Al273   1.918       .  S
O272        C285   1.265       .  A
O272       Al282   1.923       .  S
Al273       O286   1.890       .  S
Al273       O283   1.904       .  S
Al273       O278   1.807       .  S
O274        C281   1.260       .  A
O274       Al282   1.892       .  S
O275        C284   1.259       .  A
O275       Al282   1.899       .  S
O276       Al282   1.918       .  S
O277        C284   1.259       .  A
O278       Al282   1.801       .  S
O279        C280   1.263       .  A
C280        C700   1.477       .  S
C281        C943   1.479       .  S
C284       C1123   1.485       .  S
C285        O286   1.259       .  A
C285        C710   1.484       .  S
O287        C302   1.264       .  A
O287       Al295   1.896       .  S
C288        O298   1.264       .  A
C288        O289   1.266       .  A
C288        C680   1.477       .  S
O289       Al291   1.926       .  S
O290        C292   1.257       .  A
O290       Al291   1.900       .  S
Al291       O299   1.918       .  S
Al291       O301   1.923       .  S
Al291       O300   1.796       .  S
C292        O305   1.260       .  A
C292       C1013   1.488   1_655  S
O293        C303   1.261       .  A
O293       Al295   1.923       .  S
O294        C307   1.267       .  A
O294       Al304   1.909       .  S
Al295       O308   1.928       .  S
Al295       O305   1.910       .  S
Al295       O300   1.792       .  S
O296        C303   1.255       .  A
O296       Al304   1.890       .  S
O297        C306   1.255       .  A
O297       Al304   1.894       .  S
O298       Al304   1.889       .  S
O299        C306   1.261       .  A
O300       Al304   1.783       .  S
O301        C302   1.267       .  A
C302        C673   1.487   1_655  S
C303        C933   1.465       .  S
C306        C690   1.487       .  S
C307        O308   1.266       .  A
C307        C713   1.487       .  S
O309        C324   1.261       .  A
O309       Al317   1.888   1_556  S
C310        O320   1.266       .  A
C310        O311   1.268       .  A
C310        C773   1.481       .  S
O311       Al313   1.933       .  S
O312        C314   1.257       .  A
O312       Al313   1.883       .  S
Al313       O321   1.922       .  S
Al313       O323   1.926       .  S
Al313       O322   1.792       .  S
C314        O327   1.263   1_554  A
C314        C660   1.484   1_554  S
O315        C325   1.258       .  A
O315       Al317   1.917       .  S
O316        C329   1.268       .  A
O316       Al326   1.900       .  S
Al317       O330   1.934       .  S
Al317       O327   1.920   1_554  S
Al317       O322   1.792       .  S
O318        C325   1.252       .  A
O318       Al326   1.885       .  S
O319        C328   1.255       .  A
O319       Al326   1.892       .  S
O320       Al326   1.899       .  S
O321        C328   1.262       .  A
O322       Al326   1.779       .  S
O323        C324   1.266   1_554  A
C324        C703   1.486       .  S
C325       C1153   1.461       .  S
C328        C893   1.487       .  S
C329        O330   1.270       .  A
C329        C650   1.484       .  S
O331        C346   1.260       .  A
O331       Al339   1.889       .  S
C332        O342   1.264       .  A
C332        O333   1.268       .  A
C332       C1083   1.473       .  S
O333       Al335   1.927       .  S
O334        C336   1.258       .  A
O334       Al335   1.894       .  S
Al335       O343   1.923       .  S
Al335       O345   1.917       .  S
Al335       O344   1.792       .  S
C336        O349   1.263       .  A
C336        C740   1.487       .  S
O337        C347   1.258       .  A
O337       Al339   1.919       .  S
O338        C351   1.266       .  A
O338       Al348   1.894       .  S
Al339       O352   1.934       .  S
Al339       O349   1.915       .  S
Al339       O344   1.788       .  S
O340        C347   1.251       .  A
O340       Al348   1.883       .  S
O341        C350   1.254       .  A
O341       Al348   1.889       .  S
O342       Al348   1.890       .  S
O343        C350   1.262       .  A
O344       Al348   1.780       .  S
O345        C346   1.264       .  A
C346        C630   1.485       .  S
C347        C640   1.462       .  S
C350        C973   1.484       .  S
C351        O352   1.271       .  A
C351        C620   1.481       .  S
O353        C368   1.262       .  A
O353       Al361   1.906       .  S
C354        O364   1.260       .  A
C354        O355   1.264       .  A
C354        C600   1.463       .  S
O355       Al357   1.913       .  S
O356        C358   1.255       .  A
O356       Al357   1.870       .  S
Al357       O365   1.896       .  S
Al357       O367   1.905       .  S
Al357       O366   1.779       .  S
C358        O371   1.259       .  A
C358        C733   1.465       .  S
O359        C369   1.261       .  A
O359       Al361   1.916       .  S
O360        C373   1.267   1_455  A
O360       Al370   1.907       .  S
Al361       O374   1.911   1_455  S
Al361       O371   1.909       .  S
Al361       O366   1.794       .  S
O362        C369   1.257       .  A
O362       Al370   1.890       .  S
O363        C372   1.260       .  A
O363       Al370   1.912       .  S
O364       Al370   1.905       .  S
O365        C372   1.258       .  A
O366       Al370   1.787       .  S
O367        C368   1.262       .  A
C368        C633   1.477       .  S
C369       C1160   1.475   1_455  S
C372        C610   1.480       .  S
C373        O374   1.267       .  A
C373        C653   1.481       .  S
O375        C390   1.262       .  A
O375       Al383   1.910       .  S
C376        O386   1.263       .  A
C376        O377   1.262       .  A
C376        C803   1.467       .  S
O377       Al379   1.899       .  S
O378        C380   1.256       .  A
O378       Al379   1.878       .  S
Al379       O387   1.898       .  S
Al379       O389   1.895       .  S
Al379       O388   1.781       .  S
C380        O393   1.258       .  A
C380       C1000   1.469       .  S
O381        C391   1.261       .  A
O381       Al383   1.920       .  S
O382        C395   1.268       .  A
O382       Al392   1.910       .  S
Al383       O396   1.908       .  S
Al383       O393   1.913       .  S
Al383       O388   1.799       .  S
O384        C391   1.256       .  A
O384       Al392   1.885       .  S
O385        C394   1.258       .  A
O385       Al392   1.903       .  S
O386       Al392   1.914       .  S
O387        C394   1.258       .  A
O388       Al392   1.796       .  S
O389        C390   1.260       .  A
C390        C670   1.477       .  S
C391        C593   1.477   1_556  S
C394        C833   1.478       .  S
C395        O396   1.266       .  A
C395        C623   1.481   1_556  S
O397        C412   1.262       .  A
O397       Al405   1.905       .  S
C398        O408   1.260       .  A
C398        O399   1.262       .  A
C398        C723   1.461       .  S
O399       Al401   1.907       .  S
O400        C402   1.255       .  A
O400       Al401   1.872       .  S
Al401       O409   1.895       .  S
Al401       O411   1.905       .  S
Al401       O410   1.781       .  S
C402        O415   1.260       .  A
C402       C1213   1.471       .  S
O403        C413   1.261       .  A
O403       Al405   1.914       .  S
O404        C417   1.267       .  A
O404       Al414   1.905       .  S
Al405       O418   1.917       .  S
Al405       O415   1.919       .  S
Al405       O410   1.794       .  S
O406        C413   1.257       .  A
O406       Al414   1.893       .  S
O407        C416   1.261       .  A
O407       Al414   1.913       .  S
O408       Al414   1.903       .  S
O409        C416   1.257       .  A
O410       Al414   1.793       .  S
O411        C412   1.261       .  A
C412        C570   1.476       .  S
C413        C853   1.475       .  S
C416        C663   1.481       .  S
C417        O418   1.268       .  A
C417        C580   1.481       .  S
O419        C434   1.261       .  A
O419       Al427   1.890       .  S
C420        O430   1.265       .  A
C420        O421   1.267       .  A
C420       C1133   1.478       .  S
O421       Al423   1.928       .  S
O422        C424   1.257       .  A
O422       Al423   1.890       .  S
Al423       O431   1.920       .  S
Al423       O433   1.919       .  S
Al423       O432   1.793       .  S
C424        O437   1.261       .  A
C424        C613   1.484   1_556  S
O425        C435   1.258       .  A
O425       Al427   1.918       .  S
O426        C439   1.267       .  A
O426       Al436   1.904       .  S
Al427       O440   1.925       .  S
Al427       O437   1.911       .  S
Al427       O432   1.792       .  S
O428        C435   1.253       .  A
O428       Al436   1.883       .  S
O429        C438   1.254       .  A
O429       Al436   1.887       .  S
O430       Al436   1.896       .  S
O431        C438   1.261       .  A
O432       Al436   1.781       .  S
O433        C434   1.265       .  A
C434        C560   1.485   1_556  S
C435        C843   1.462       .  S
C438       C1023   1.485       .  S
C439        O440   1.268       .  A
C439        C583   1.483       .  S
O441        C456   1.262   1_545  A
O441       Al449   1.897       .  S
C442        O452   1.264       .  A
C442        O443   1.265       .  A
C442        C920   1.476       .  S
O443       Al445   1.921       .  S
O444        C446   1.260       .  A
O444       Al445   1.899       .  S
Al445       O453   1.928       .  S
Al445       O455   1.917       .  S
Al445       O454   1.792       .  S
C446        O459   1.263       .  A
C446       C1223   1.489   1_545  S
O447        C457   1.259       .  A
O447       Al449   1.921       .  S
O448        C461   1.265       .  A
O448       Al458   1.898       .  S
Al449       O462   1.928       .  S
Al449       O459   1.918       .  S
Al449       O454   1.793       .  S
O450        C457   1.252       .  A
O450       Al458   1.878       .  S
O451        C460   1.254       .  A
O451       Al458   1.888       .  S
O452       Al458   1.900       .  S
O453        C460   1.264       .  A
O454       Al458   1.783       .  S
O455        C456   1.264   1_545  A
C456        C573   1.488       .  S
C457        C683   1.463       .  S
C460        C793   1.486       .  S
C461        O462   1.268       .  A
C461        C550   1.483       .  S
O463        C478   1.262       .  A
O463       Al471   1.891       .  S
C464        O474   1.264       .  A
C464        O465   1.267       .  A
C464        C643   1.476       .  S
O465       Al467   1.931       .  S
O466        C468   1.258       .  A
O466       Al467   1.897       .  S
Al467       O475   1.914       .  S
Al467       O477   1.927       .  S
Al467       O476   1.793       .  S
C468        O481   1.262       .  A
C468        C883   1.486       .  S
O469        C479   1.260       .  A
O469       Al471   1.920       .  S
O470        C483   1.266       .  A
O470       Al480   1.903       .  S
Al471       O484   1.927       .  S
Al471       O481   1.911       .  S
Al471       O476   1.789       .  S
O472        C479   1.254       .  A
O472       Al480   1.883       .  S
O473        C482   1.254       .  A
O473       Al480   1.887       .  S
O474       Al480   1.894       .  S
O475        C482   1.261       .  A
O476       Al480   1.780       .  S
O477        C478   1.267       .  A
C478        C540   1.487       .  S
C479       C1033   1.462       .  S
C482        C590   1.479       .  S
C483        O484   1.267       .  A
C483        C530   1.482       .  S
O485        C500   1.262       .  A
O485       Al493   1.909       .  S
C486        O496   1.262       .  A
C486        O487   1.264       .  A
C486        C983   1.459       .  S
O487       Al489   1.906       .  S
O488        C490   1.256       .  A
O488       Al489   1.879       .  S
Al489       O497   1.903       .  S
Al489       O499   1.900       .  S
Al489       O498   1.782       .  S
C490        O503   1.260       .  A
C490        C873   1.474       .  S
O491        C501   1.262       .  A
O491       Al493   1.926       .  S
O492        C505   1.268   1_554  A
O492       Al502   1.906       .  S
Al493       O506   1.916   1_554  S
Al493       O503   1.917       .  S
Al493       O498   1.794       .  S
O494        C501   1.257       .  A
O494       Al502   1.896       .  S
O495        C504   1.257       .  A
O495       Al502   1.905       .  S
O496       Al502   1.901       .  S
O497        C504   1.257       .  A
O498       Al502   1.794       .  S
O499        C500   1.262       .  A
C500        C543   1.480       .  S
C501        C693   1.483   1_554  S
C504       C1170   1.482       .  S
C505        O506   1.269       .  A
C505        C553   1.481       .  S
O507        C522   1.269       .  A
O507       Al515   1.932       .  S
C508        O518   1.268       .  A
C508        O509   1.266       .  A
C508        C753   1.475       .  S
O509       Al511   1.904       .  S
O510        C512   1.255       .  A
O510       Al511   1.884       .  S
Al511       O519   1.893       .  S
Al511       O521   1.905       .  S
Al511       O520   1.778       .  S
C512        O525   1.260       .  A
C512        C603   1.464       .  S
O513        C523   1.263   1_545  A
O513       Al515   1.919   1_545  S
O514        C527   1.266   1_565  A
O514       Al524   1.925       .  S
Al515       O528   1.885       .  S
Al515       O525   1.922       .  S
Al515       O520   1.789       .  S
O516        C523   1.258       .  A
O516       Al524   1.895       .  S
O517        C526   1.262       .  A
O517       Al524   1.918       .  S
O518       Al524   1.926       .  S
O519        C526   1.256       .  A
O520       Al524   1.789       .  S
O521        C522   1.267       .  A
C522        C563   1.484       .  S
C523       C1040   1.487   1_565  S
C526        C783   1.484       .  S
C527        O528   1.260   1_545  A
C527        C533   1.484       .  S
C529        C530   1.404       .  A
C529        C534   1.398       .  A
C529        H535   1.083       .  S
C530        C531   1.408       .  A
C531        C532   1.400       .  A
C531        H536   1.083       .  S
C532        C533   1.405       .  A
C532        H537   1.083       .  S
C533        C534   1.408       .  A
C534        H538   1.083       .  S
C539        C540   1.407       .  A
C539        C544   1.397       .  A
C539        H545   1.083       .  S
C540        C541   1.408       .  A
C541        C542   1.404       .  A
C541        H546   1.083       .  S
C542        C543   1.406       .  A
C542        H547   1.083       .  S
C543        C544   1.403       .  A
C544        H548   1.083       .  S
C549        C550   1.408       .  A
C549        C554   1.400       .  A
C549        H555   1.083       .  S
C550        C551   1.405       .  A
C551        C552   1.397       .  A
C551        H556   1.083       .  S
C552        C553   1.407       .  A
C552        H557   1.083       .  S
C553        C554   1.404       .  A
C554        H558   1.083       .  S
C559        C560   1.405       .  A
C559        C564   1.400       .  A
C559        H565   1.083       .  S
C560        C561   1.407       .  A
C561        C562   1.399       .  A
C561        H566   1.083       .  S
C562        C563   1.404       .  A
C562        H567   1.083       .  S
C563        C564   1.408       .  A
C564        H568   1.083       .  S
C569        C570   1.402       .  A
C569        C574   1.399       .  A
C569        H575   1.083       .  S
C570        C571   1.404       .  A
C571        C572   1.402       .  A
C571        H576   1.083       .  S
C572        C573   1.409       .  A
C572        H577   1.083       .  S
C573        C574   1.408       .  A
C574        H578   1.083       .  S
C579        C580   1.404       .  A
C579        C584   1.399       .  A
C579        H585   1.083       .  S
C580        C581   1.407       .  A
C581        C582   1.399       .  A
C581        H586   1.083       .  S
C582        C583   1.404       .  A
C582        H587   1.083       .  S
C583        C584   1.408       .  A
C584        H588   1.083       .  S
C589        C590   1.410       .  A
C589        C594   1.401       .  A
C589        H595   1.083       .  S
C590        C591   1.401       .  A
C591        C592   1.397       .  A
C591        H596   1.083       .  S
C592        C593   1.408       .  A
C592        H597   1.083   1_554  S
C593        C594   1.401       .  A
C594        H598   1.083       .  S
C599        C600   1.397       .  A
C599        C604   1.390       .  A
C599        H605   1.084       .  S
C600        C601   1.405       .  A
C601        C602   1.404       .  A
C601        H606   1.083       .  S
C602        C603   1.403       .  A
C602        H607   1.083       .  S
C603        C604   1.403       .  A
C604        H608   1.084       .  S
C609        C610   1.405       .  A
C609        C614   1.398       .  A
C609        H615   1.083       .  S
C610        C611   1.406       .  A
C611        C612   1.400       .  A
C611        H616   1.083       .  S
C612        C613   1.406       .  A
C612        H617   1.083       .  S
C613        C614   1.406       .  A
C614        H618   1.083   1_554  S
C619        C620   1.404       .  A
C619        C624   1.396       .  A
C619        H625   1.083       .  S
C620        C621   1.408       .  A
C621        C622   1.401       .  A
C621        H626   1.083       .  S
C622        C623   1.404       .  A
C622        H627   1.083       .  S
C623        C624   1.407       .  A
C624        H628   1.083       .  S
C629        C630   1.407       .  A
C629        C634   1.396       .  A
C629        H635   1.083       .  S
C630        C631   1.408       .  A
C631        C632   1.403       .  A
C631        H636   1.083       .  S
C632        C633   1.405       .  A
C632        H637   1.083       .  S
C633        C634   1.402       .  A
C634        H638   1.083       .  S
C639        C640   1.400       .  A
C639        C644   1.395       .  A
C639        H645   1.083       .  S
C640        C641   1.404       .  A
C641        C642   1.401       .  A
C641        H646   1.084       .  S
C642        C643   1.405       .  A
C642        H647   1.083       .  S
C643        C644   1.404       .  A
C644        H648   1.081       .  S
C649        C650   1.404       .  A
C649        C654   1.396       .  A
C649        H655   1.083       .  S
C650        C651   1.409       .  A
C651        C652   1.402       .  A
C651        H656   1.083       .  S
C652        C653   1.404       .  A
C652        H657   1.083       .  S
C653        C654   1.406       .  A
C654        H658   1.083       .  S
C659        C660   1.407       .  A
C659        C664   1.396       .  A
C659        H665   1.083       .  S
C660        C661   1.406       .  A
C661        C662   1.402       .  A
C661        H666   1.083       .  S
C662        C663   1.407       .  A
C662        H667   1.083       .  S
C663        C664   1.404       .  A
C664        H668   1.083       .  S
C669        C670   1.404       .  A
C669        C674   1.403       .  A
C669        H675   1.083       .  S
C670        C671   1.403       .  A
C671        C672   1.398       .  A
C671        H676   1.083       .  S
C672        C673   1.407       .  A
C672        H677   1.083       .  S
C673        C674   1.408       .  A
C674        H678   1.083       .  S
C679        C680   1.407       .  A
C679        C684   1.404       .  A
C679        H685   1.083       .  S
C680        C681   1.403       .  A
C681        C682   1.392       .  A
C681        H686   1.082       .  S
C682        C683   1.400       .  A
C682        H687   1.083       .  S
C683        C684   1.403       .  A
C684        H688   1.083       .  S
C689        C690   1.411       .  A
C689        C694   1.404       .  A
C689        H695   1.083       .  S
C690        C691   1.403       .  A
C691        C692   1.401       .  A
C691        H696   1.083       .  S
C692        C693   1.408       .  A
C692        H697   1.083       .  S
C693        C694   1.402       .  A
C694        H698   1.083       .  S
C699        C700   1.405       .  A
C699        C704   1.404       .  A
C699        H705   1.083       .  S
C700        C701   1.402       .  A
C701        C702   1.397       .  A
C701        H706   1.084       .  S
C702        C703   1.408       .  A
C702        H707   1.083       .  S
C703        C704   1.407       .  A
C704        H708   1.083       .  S
C709        C710   1.403       .  A
C709        C714   1.403       .  A
C709        H715   1.083       .  S
C710        C711   1.408       .  A
C711        C712   1.398       .  A
C711        H716   1.083       .  S
C712        C713   1.403       .  A
C712        H717   1.083       .  S
C713        C714   1.411       .  A
C714        H718   1.083       .  S
C719        C720   1.406       .  A
C719        C724   1.400       .  A
C719        H725   1.084       .  S
C720        C721   1.401       .  A
C721        C722   1.394       .  A
C721        H726   1.083       .  S
C722        C723   1.401       .  A
C722        H727   1.083       .  S
C723        C724   1.401       .  A
C724        H728   1.083       .  S
C729        C730   1.404       .  A
C729        C734   1.399       .  A
C729        H735   1.083       .  S
C730        C731   1.403       .  A
C731        C732   1.387       .  A
C731        H736   1.081       .  S
C732        C733   1.400       .  A
C732        H737   1.084       .  S
C733        C734   1.405       .  A
C734        H738   1.083       .  S
C739        C740   1.404       .  A
C739        C744   1.398       .  A
C739        H745   1.083       .  S
C740        C741   1.409       .  A
C741        C742   1.403       .  A
C741        H746   1.083       .  S
C742        C743   1.405       .  A
C742        H747   1.083       .  S
C743        C744   1.408       .  A
C744        H748   1.083       .  S
C749        C750   1.402       .  A
C749        C754   1.400       .  A
C749        H755   1.082       .  S
C750        C751   1.401       .  A
C751        C752   1.398       .  A
C751        H756   1.084       .  S
C752        C753   1.405       .  A
C752        H757   1.083       .  S
C753        C754   1.404       .  A
C754        H758   1.083       .  S
C759        C760   1.407       .  A
C759        C764   1.400       .  A
C759        H765   1.083       .  S
C760        C761   1.406       .  A
C761        C762   1.398       .  A
C761        H766   1.083       .  S
C762        C763   1.406       .  A
C762        H767   1.083       .  S
C763        C764   1.406       .  A
C764        H768   1.083       .  S
C769        C770   1.404       .  A
C769        C774   1.403       .  A
C769        H775   1.083       .  S
C770        C771   1.401       .  A
C771        C772   1.396       .  A
C771        H776   1.087       .  S
C772        C773   1.405       .  A
C772        H777   1.082       .  S
C773        C774   1.407       .  A
C774        H778   1.085       .  S
C779        C780   1.404       .  A
C779        C784   1.397       .  A
C779        H785   1.083       .  S
C780        C781   1.410       .  A
C781        C782   1.404       .  A
C781        H786   1.083       .  S
C782        C783   1.405       .  A
C782        H787   1.083       .  S
C783        C784   1.407       .  A
C784        H788   1.083       .  S
C789        C790   1.410       .  A
C789        C794   1.401       .  A
C789        H795   1.083       .  S
C790        C791   1.401       .  A
C791        C792   1.403       .  A
C791        H796   1.083       .  S
C792        C793   1.412       .  A
C792        H797   1.083       .  S
C793        C794   1.401       .  A
C794        H798   1.083       .  S
C799        C800   1.400       .  A
C799        C804   1.388       .  A
C799        H805   1.083       .  S
C800        C801   1.410       .  A
C801        C802   1.406       .  A
C801        H806   1.083       .  S
C802        C803   1.402       .  A
C802        H807   1.083       .  S
C803        C804   1.396       .  A
C804        H808   1.084       .  S
C809        C810   1.406       .  A
C809        C814   1.398       .  A
C809        H815   1.083       .  S
C810        C811   1.409       .  A
C811        C812   1.406       .  A
C811        H816   1.083       .  S
C812        C813   1.405       .  A
C812        H817   1.083       .  S
C813        C814   1.404       .  A
C814        H818   1.084       .  S
C819        C820   1.404       .  A
C819        C824   1.397       .  A
C819        H825   1.083       .  S
C820        C821   1.406       .  A
C821        C822   1.399       .  A
C821        H826   1.083       .  S
C822        C823   1.405       .  A
C822        H827   1.083       .  S
C823        C824   1.407       .  A
C824        H828   1.083       .  S
C829        C830   1.406       .  A
C829        C834   1.398       .  A
C829        H835   1.083       .  S
C830        C831   1.406       .  A
C831        C832   1.398       .  A
C831        H836   1.083       .  S
C832        C833   1.405       .  A
C832        H837   1.083       .  S
C833        C834   1.405       .  A
C834        H838   1.083       .  S
C839        C840   1.407       .  A
C839        C844   1.404       .  A
C839        H845   1.083       .  S
C840        C841   1.403       .  A
C841        C842   1.391       .  A
C841        H846   1.080       .  S
C842        C843   1.398       .  A
C842        H847   1.082       .  S
C843        C844   1.404       .  A
C844        H848   1.083       .  S
C849        C850   1.402       .  A
C849        C854   1.398       .  A
C849        H855   1.083       .  S
C850        C851   1.410       .  A
C851        C852   1.399       .  A
C851        H856   1.083       .  S
C852        C853   1.400       .  A
C852        H857   1.083       .  S
C853        C854   1.407       .  A
C854        H858   1.083       .  S
C859        C860   1.405       .  A
C859        C864   1.399       .  A
C859        H865   1.083       .  S
C860        C861   1.408       .  A
C861        C862   1.397       .  A
C861        H866   1.083       .  S
C862        C863   1.403       .  A
C862        H867   1.083       .  S
C863        C864   1.407       .  A
C864        H868   1.083       .  S
C869        C870   1.406       .  A
C869        C874   1.403       .  A
C869        H875   1.083       .  S
C870        C871   1.404       .  A
C871        C872   1.391       .  A
C871        H876   1.082       .  S
C872        C873   1.401       .  A
C872        H877   1.080       .  S
C873        C874   1.406       .  A
C874        H878   1.083       .  S
C879        C880   1.407       .  A
C879        C884   1.398       .  A
C879        H885   1.083       .  S
C880        C881   1.406       .  A
C881        C882   1.403       .  A
C881        H886   1.083       .  S
C882        C883   1.408       .  A
C882        H887   1.083       .  S
C883        C884   1.405       .  A
C884        H888   1.083       .  S
C889        C890   1.403       .  A
C889        C894   1.398       .  A
C889        H895   1.083       .  S
C890        C891   1.411       .  A
C891        C892   1.405       .  A
C891        H896   1.083       .  S
C892        C893   1.405       .  A
C892        H897   1.083       .  S
C893        C894   1.409       .  A
C894        H898   1.083       .  S
C899        C900   1.407       .  A
C899        C904   1.400       .  A
C899        H905   1.083       .  S
C900        C901   1.408       .  A
C901        C902   1.403       .  A
C901        H906   1.083       .  S
C902        C903   1.407       .  A
C902        H907   1.083       .  S
C903        C904   1.407       .  A
C904        H908   1.083       .  S
C909        C910   1.403       .  A
C909        C914   1.396       .  A
C909        H915   1.083       .  S
C910        C911   1.408       .  A
C911        C912   1.399       .  A
C911        H916   1.083       .  S
C912        C913   1.403       .  A
C912        H917   1.083       .  S
C913        C914   1.405       .  A
C914        H918   1.083       .  S
C919        C920   1.403       .  A
C919        C924   1.395       .  A
C919        H925   1.082       .  S
C920        C921   1.406       .  A
C921        C922   1.400       .  A
C921        H926   1.083       .  S
C922        C923   1.402       .  A
C922        H927   1.083       .  S
C923        C924   1.402       .  A
C924        H928   1.083       .  S
C929        C930   1.405       .  A
C929        C934   1.398       .  A
C929        H935   1.082       .  S
C930        C931   1.406       .  A
C931        C932   1.401       .  A
C931        H936   1.083       .  S
C932        C933   1.403       .  A
C932        H937   1.084       .  S
C933        C934   1.402       .  A
C934        H938   1.082       .  S
C939        C940   1.410       .  A
C939        C944   1.403       .  A
C939        H945   1.083       .  S
C940        C941   1.402       .  A
C941        C942   1.396       .  A
C941        H946   1.083       .  S
C942        C943   1.407       .  A
C942        H947   1.083       .  S
C943        C944   1.403       .  A
C944        H948   1.083       .  S
C949        C950   1.403       .  A
C949        C954   1.402       .  A
C949        H955   1.083       .  S
C950        C951   1.400       .  A
C951        C952   1.394       .  A
C951        H956   1.083       .  S
C952        C953   1.402       .  A
C952        H957   1.084       .  S
C953        C954   1.403       .  A
C954        H958   1.083       .  S
C959        C960   1.407       .  A
C959        C964   1.398       .  A
C959        H965   1.083       .  S
C960        C961   1.406       .  A
C961        C962   1.402       .  A
C961        H966   1.083       .  S
C962        C963   1.407       .  A
C962        H967   1.083       .  S
C963        C964   1.405       .  A
C964        H968   1.083       .  S
C969        C970   1.408       .  A
C969        C974   1.400       .  A
C969        H975   1.083   1_455  S
C970        C971   1.400       .  A
C971        C972   1.401       .  A
C971        H976   1.083       .  S
C972        C973   1.412       .  A
C972        H977   1.083       .  S
C973        C974   1.402       .  A
C974        H978   1.083       .  S
C979        C980   1.408       .  A
C979        C984   1.401       .  A
C979        H985   1.083       .  S
C980        C981   1.400       .  A
C981        C982   1.392       .  A
C981        H986   1.084       .  S
C982        C983   1.400       .  A
C982        H987   1.081       .  S
C983        C984   1.400       .  A
C984        H988   1.083       .  S
C989        C990   1.400       .  A
C989        C994   1.394       .  A
C989        H995   1.083       .  S
C990        C991   1.403       .  A
C991        C992   1.400       .  A
C991        H996   1.084       .  S
C992        C993   1.401       .  A
C992        H997   1.083       .  S
C993        C994   1.401       .  A
C994        H998   1.084       .  S
C999       C1000   1.405       .  A
C999       C1004   1.402       .  A
C999       H1005   1.083       .  S
C1000      C1001   1.398       .  A
C1001      C1002   1.385       .  A
C1001      H1006   1.084       .  S
C1002      C1003   1.401       .  A
C1002      H1007   1.083       .  S
C1003      C1004   1.406       .  A
C1004      H1008   1.083       .  S
C1009      C1010   1.405       .  A
C1009      C1014   1.404       .  A
C1009      H1015   1.083       .  S
C1010      C1011   1.407       .  A
C1011      C1012   1.397       .  A
C1011      H1016   1.083       .  S
C1012      C1013   1.405       .  A
C1012      H1017   1.083       .  S
C1013      C1014   1.409       .  A
C1014      H1018   1.083   1_455  S
C1019      C1020   1.410       .  A
C1019      C1024   1.403       .  A
C1019      H1025   1.083   1_565  S
C1020      C1021   1.403       .  A
C1021      C1022   1.398       .  A
C1021      H1026   1.083       .  S
C1022      C1023   1.409       .  A
C1022      H1027   1.083       .  S
C1023      C1024   1.404       .  A
C1024      H1028   1.083       .  S
C1029      C1030   1.403       .  A
C1029      C1034   1.393       .  A
C1029      H1035   1.082       .  S
C1030      C1031   1.407       .  A
C1031      C1032   1.403       .  A
C1031      H1036   1.083       .  S
C1032      C1033   1.403       .  A
C1032      H1037   1.083       .  S
C1033      C1034   1.400       .  A
C1034      H1038   1.081       .  S
C1039      C1040   1.405       .  A
C1039      C1044   1.398       .  A
C1039      H1045   1.083       .  S
C1040      C1041   1.409       .  A
C1041      C1042   1.403       .  A
C1041      H1046   1.083       .  S
C1042      C1043   1.405       .  A
C1042      H1047   1.083       .  S
C1043      C1044   1.408       .  A
C1044      H1048   1.083       .  S
C1049      C1050   1.406       .  A
C1049      C1054   1.395       .  A
C1049      H1055   1.083       .  S
C1050      C1051   1.406       .  A
C1051      C1052   1.403       .  A
C1051      H1056   1.083       .  S
C1052      C1053   1.407       .  A
C1052      H1057   1.083       .  S
C1053      C1054   1.404       .  A
C1054      H1058   1.083       .  S
C1059      C1060   1.407       .  A
C1059      C1064   1.398       .  A
C1059      H1065   1.083       .  S
C1060      C1061   1.404       .  A
C1061      C1062   1.402       .  A
C1061      H1066   1.083       .  S
C1062      C1063   1.409       .  A
C1062      H1067   1.083       .  S
C1063      C1064   1.404       .  A
C1064      H1068   1.083       .  S
C1069      C1070   1.407       .  A
C1069      C1074   1.400       .  A
C1069      H1075   1.083       .  S
C1070      C1071   1.406       .  A
C1071      C1072   1.400       .  A
C1071      H1076   1.083       .  S
C1072      C1073   1.406       .  A
C1072      H1077   1.083       .  S
C1073      C1074   1.406       .  A
C1074      H1078   1.083       .  S
C1079      C1080   1.400       .  A
C1079      C1084   1.393       .  A
C1079      H1085   1.082       .  S
C1080      C1081   1.401       .  A
C1081      C1082   1.399       .  A
C1081      H1086   1.083       .  S
C1082      C1083   1.406       .  A
C1082      H1087   1.083       .  S
C1083      C1084   1.403       .  A
C1084      H1088   1.083       .  S
C1089      C1090   1.403       .  A
C1089      C1094   1.393       .  A
C1089      H1095   1.082       .  S
C1090      C1091   1.407       .  A
C1091      C1092   1.403       .  A
C1091      H1096   1.083       .  S
C1092      C1093   1.403       .  A
C1092      H1097   1.083       .  S
C1093      C1094   1.400       .  A
C1094      H1098   1.081       .  S
C1099      C1100   1.410       .  A
C1099      C1104   1.402       .  A
C1099      H1105   1.083       .  S
C1100      C1101   1.404       .  A
C1101      C1102   1.399       .  A
C1101      H1106   1.083       .  S
C1102      C1103   1.409       .  A
C1102      H1107   1.083       .  S
C1103      C1104   1.403       .  A
C1104      H1108   1.083       .  S
C1109      C1110   1.407       .  A
C1109      C1114   1.398       .  A
C1109      H1115   1.083       .  S
C1110      C1111   1.404       .  A
C1111      C1112   1.399       .  A
C1111      H1116   1.083       .  S
C1112      C1113   1.408       .  A
C1112      H1117   1.083       .  S
C1113      C1114   1.404       .  A
C1114      H1118   1.083       .  S
C1119      C1120   1.408       .  A
C1119      C1124   1.403       .  A
C1119      H1125   1.083       .  S
C1120      C1121   1.406       .  A
C1121      C1122   1.398       .  A
C1121      H1126   1.083       .  S
C1122      C1123   1.406       .  A
C1122      H1127   1.083       .  S
C1123      C1124   1.407       .  A
C1124      H1128   1.083       .  S
C1129      C1130   1.401       .  A
C1129      C1134   1.394       .  A
C1129      H1135   1.083       .  S
C1130      C1131   1.403       .  A
C1131      C1132   1.402       .  A
C1131      H1136   1.083       .  S
C1132      C1133   1.407       .  A
C1132      H1137   1.083       .  S
C1133      C1134   1.403       .  A
C1134      H1138   1.082       .  S
C1139      C1140   1.407       .  A
C1139      C1144   1.400       .  A
C1139      H1145   1.083       .  S
C1140      C1141   1.408       .  A
C1141      C1142   1.405       .  A
C1141      H1146   1.083       .  S
C1142      C1143   1.406       .  A
C1142      H1147   1.083       .  S
C1143      C1144   1.404       .  A
C1144      H1148   1.083       .  S
C1149      C1150   1.403       .  A
C1149      C1154   1.395       .  A
C1149      H1155   1.083       .  S
C1150      C1151   1.405       .  A
C1151      C1152   1.402       .  A
C1151      H1156   1.083       .  S
C1152      C1153   1.405       .  A
C1152      H1157   1.084       .  S
C1153      C1154   1.400       .  A
C1154      H1158   1.083       .  S
C1159      C1160   1.400       .  A
C1159      C1164   1.400       .  A
C1159      H1165   1.083       .  S
C1160      C1161   1.407       .  A
C1161      C1162   1.397       .  A
C1161      H1166   1.083   1_655  S
C1162      C1163   1.401       .  A
C1162      H1167   1.083       .  S
C1163      C1164   1.410       .  A
C1164      H1168   1.083       .  S
C1169      C1170   1.406       .  A
C1169      C1174   1.398       .  A
C1169      H1175   1.083       .  S
C1170      C1171   1.406       .  A
C1171      C1172   1.400       .  A
C1171      H1176   1.083       .  S
C1172      C1173   1.407       .  A
C1172      H1177   1.083       .  S
C1173      C1174   1.406       .  A
C1174      H1178   1.083   1_545  S
C1179      C1180   1.402       .  A
C1179      C1184   1.401       .  A
C1179      H1185   1.085       .  S
C1180      C1181   1.400       .  A
C1181      C1182   1.392       .  A
C1181      H1186   1.082       .  S
C1182      C1183   1.402       .  A
C1182      H1187   1.086       .  S
C1183      C1184   1.405       .  A
C1184      H1188   1.082       .  S
C1189      C1190   1.405       .  A
C1189      C1194   1.398       .  A
C1189      H1195   1.083       .  S
C1190      C1191   1.405       .  A
C1191      C1192   1.397       .  A
C1191      H1196   1.083       .  S
C1192      C1193   1.406       .  A
C1192      H1197   1.083       .  S
C1193      C1194   1.406       .  A
C1194      H1198   1.083       .  S
C1199      C1200   1.408       .  A
C1199      C1204   1.394       .  A
C1199      H1205   1.083       .  S
C1200      C1201   1.405       .  A
C1201      C1202   1.404       .  A
C1201      H1206   1.083       .  S
C1202      C1203   1.409       .  A
C1202      H1207   1.083       .  S
C1203      C1204   1.403       .  A
C1204      H1208   1.083       .  S
C1209      C1210   1.404       .  A
C1209      C1214   1.388       .  A
C1209      H1215   1.081       .  S
C1210      C1211   1.405       .  A
C1211      C1212   1.402       .  A
C1211      H1216   1.083       .  S
C1212      C1213   1.406       .  A
C1212      H1217   1.083       .  S
C1213      C1214   1.401       .  A
C1214      H1218   1.083       .  S
C1219      C1220   1.408       .  A
C1219      C1224   1.401       .  A
C1219      H1225   1.083       .  S
C1220      C1221   1.405       .  A
C1221      C1222   1.402       .  A
C1221      H1226   1.083       .  S
C1222      C1223   1.408       .  A
C1222      H1227   1.083   1_565  S
C1223      C1224   1.406       .  A
C1224      H1228   1.083       .  S
C1229      C1230   1.405       .  A
C1229      C1234   1.405       .  A
C1229      H1235   1.083       .  S
C1230      C1231   1.400       .  A
C1231      C1232   1.396       .  A
C1231      H1236   1.082       .  S
C1232      C1233   1.403       .  A
C1232      H1237   1.084       .  S
C1233      C1234   1.404       .  A
C1234      H1238   1.083       .  S
C1239      C1240   1.404       .  A
C1239      C1244   1.399       .  A
C1239      H1245   1.083       .  S
C1240      C1241   1.410       .  A
C1241      C1242   1.402       .  A
C1241      H1246   1.083       .  S
C1242      C1243   1.404       .  A
C1242      H1247   1.083       .  S
C1243      C1244   1.408       .  A
C1244      H1248   1.083       .  S
