geometry optimzed in LAMMPS
_audit_creation_date              2020-11-30 
_audit_creation_method            'lammps2cif' 
_symmetry_space_group_name_H-M    'P1' 
_symmetry_Int_Tables_number       1 
_symmetry_cell_setting            triclinic 
loop_ 
_symmetry_equiv_pos_as_xyz 
  x,y,z 
_cell_length_a                    118.95786825 
_cell_length_b                    67.29966763751547 
_cell_length_c                    35.22091821107807 
_cell_angle_alpha                 89.97712330335334 
_cell_angle_beta                  90.00514966962933 
_cell_angle_gamma                 89.93816128425792 
loop_ 
_atom_site_label 
_atom_site_type_symbol 
_atom_site_fract_x 
_atom_site_fract_y 
_atom_site_fract_z 
_atom_site_charge 
O1          O  0.69497114  0.55535509  0.22865215    -0.81100
O2          O  0.69369538  0.46628396  0.19382608    -0.65800
O3          O  0.68377911  0.51944979  0.21225690    -1.12400
C4          C  0.68754541  0.50169888  0.34102756     1.05800
O5          O  0.68171541  0.45474010  0.23666007    -0.79000
O6          O  0.66811785  0.48068641  0.27259124    -0.66600
Ni7        Ni  0.68980430  0.54125143  0.18422996     1.34900
C8          C  0.66442351  0.49819912  0.27696702     0.84500
O9          O  0.68707449  0.49607810  0.14663788    -0.79600
O10         O  0.68513452  0.52909682  0.13758214    -0.89800
C11         C  0.68913849  0.45185453  0.21130774     0.84100
O12         O  0.70471036  0.53166359  0.17517113    -0.68000
O13         O  0.68382587  0.48502925  0.32913061    -0.87300
C14         C  0.70951598  0.51501255  0.17999699     0.84900
C15         C  0.68582738  0.51131401  0.12517429     1.06500
H16         H  0.69870047  0.49002198  0.26082691     0.38300
O17         O  0.69080536  0.49157110  0.25502165    -1.10000
O18         O  0.67081932  0.51342182  0.27663287    -0.66600
Ni19       Ni  0.68668057  0.51827519  0.26571819     1.26300
O20         O  0.70461068  0.50014721  0.19505779    -0.66900
O21         O  0.69009440  0.51589294  0.31868678    -0.79200
C22         C  0.68901482  0.55909649  0.25773642     0.84300
O23         O  0.68322870  0.54563548  0.27350795    -0.66300
Ni24       Ni  0.68297169  0.47103862  0.28129923     1.27400
Ni25       Ni  0.68892856  0.49326521  0.20101395     1.26100
H26         H  0.67575978  0.51964674  0.20829467     0.38800
O27         O  0.70057117  0.55420251  0.73247310    -0.81100
O28         O  0.69409744  0.46655126  0.69128925    -0.65800
O29         O  0.68748216  0.52090964  0.71388364    -1.12400
C30         C  0.69030813  0.49958932  0.84092385     1.05800
O31         O  0.68110069  0.45788120  0.73218075    -0.79000
O32         O  0.66991018  0.48411070  0.77620447    -0.66600
Ni33       Ni  0.69479567  0.54189475  0.68718828     1.34900
C34         C  0.66738696  0.50221576  0.78157722     0.84500
O35         O  0.68869927  0.49816213  0.64681412    -0.79600
O36         O  0.68943015  0.53149686  0.64000888    -0.89800
C37         C  0.68876502  0.45309323  0.70888766     0.84100
O38         O  0.70914095  0.52970301  0.67820442    -0.68000
O39         O  0.68677126  0.48301701  0.82802450    -0.87300
C40         C  0.71277407  0.51202340  0.68137786     0.84900
C41         C  0.68842090  0.51398407  0.62661683     1.06500
H42         H  0.70074094  0.48816661  0.75952877     0.38300
O43         O  0.69294545  0.49115501  0.75439876    -1.10000
O44         O  0.67451713  0.51617225  0.77830912    -0.66600
Ni45       Ni  0.69038344  0.51825423  0.76719589     1.26300
O46         O  0.70678859  0.49782333  0.69387655    -0.66900
O47         O  0.69322388  0.51425044  0.82013311    -0.79200
C48         C  0.69444848  0.55891431  0.76058415     0.84300
O49         O  0.68841480  0.54596198  0.77688792    -0.66300
Ni50       Ni  0.68419719  0.47127607  0.77908335     1.27400
Ni51       Ni  0.69086280  0.49408023  0.70060770     1.26100
H52         H  0.67950535  0.52278903  0.71019607     0.38800
O53         O  0.55036667  0.55779051  0.39173587    -0.81100
O54         O  0.55321181  0.46857666  0.42686826    -0.65800
O55         O  0.56148768  0.52270951  0.41156796    -1.12400
C56         C  0.55933616  0.50463576  0.28070739     1.05800
O57         O  0.56627928  0.46034094  0.38581819    -0.79000
O58         O  0.57754109  0.48418909  0.33842123    -0.66600
Ni59       Ni  0.55442390  0.54392162  0.43778596     1.34900
C60         C  0.58193229  0.50099287  0.34490661     0.84500
O61         O  0.55879851  0.49852771  0.47519471    -0.79600
O62         O  0.55820369  0.53170606  0.48536717    -0.89800
C63         C  0.55887707  0.45530618  0.40980025     0.84100
O64         O  0.53957343  0.53339073  0.44242365    -0.68000
O65         O  0.55953620  0.48661358  0.29202512    -0.87300
C66         C  0.53552898  0.51607349  0.43844035     0.84900
C67         C  0.55912278  0.51377442  0.49698288     1.06500
H68         H  0.54768648  0.49450413  0.36038379     0.38300
O69         O  0.55558228  0.49519216  0.36665242    -1.10000
O70         O  0.57623021  0.51617844  0.35465082    -0.66600
Ni71       Ni  0.56029666  0.52169450  0.35754989     1.26300
O72         O  0.54124694  0.50142973  0.42621491    -0.66900
O73         O  0.55935562  0.51959697  0.30308051    -0.79200
C74         C  0.55725370  0.56205675  0.36527414     0.84300
O75         O  0.56391153  0.54906740  0.35192881    -0.66300
Ni76       Ni  0.56262933  0.47412501  0.33983959     1.27400
Ni77       Ni  0.55708034  0.49611424  0.42092367     1.26100
H78         H  0.56935365  0.52359659  0.41820845     0.38800
O79         O  0.55182626  0.55530476  0.88463263    -0.81100
O80         O  0.55707495  0.46714168  0.92899640    -0.65800
O81         O  0.56401522  0.52143167  0.90851625    -1.12400
C82         C  0.56487691  0.49957234  0.78099097     1.05800
O83         O  0.57109939  0.45744625  0.89228778    -0.79000
O84         O  0.58361308  0.48418131  0.85247484    -0.66600
Ni85       Ni  0.55577534  0.54246045  0.93203289     1.34900
C86         C  0.58628438  0.50236826  0.84930824     0.84500
O87         O  0.56076786  0.49868062  0.97488611    -0.79600
O88         O  0.55911159  0.53185399  0.98128482    -0.89800
C89         C  0.56305455  0.45343569  0.91473627     0.84100
O90         O  0.54130293  0.53026032  0.93479931    -0.68000
O91         O  0.56826885  0.48316969  0.79515559    -0.87300
C92         C  0.53767528  0.51267005  0.93054429     0.84900
C93         C  0.56025139  0.51444344  0.99513905     1.06500
H94         H  0.55240111  0.48848260  0.85865025     0.38300
O95         O  0.55999966  0.49143001  0.86654257    -1.10000
O96         O  0.57911248  0.51639147  0.85003386    -0.66600
Ni97       Ni  0.56293941  0.51847256  0.85454910     1.26300
O98         O  0.54415441  0.49841133  0.92123579    -0.66900
O99         O  0.56168943  0.51436189  0.80093427    -0.79200
C100        C  0.55861154  0.55911774  0.85765775     0.84300
O101        O  0.56522972  0.54596183  0.84505679    -0.66300
Ni102      Ni  0.56943837  0.47142487  0.84486319     1.27400
Ni103      Ni  0.56029850  0.49461511  0.92060541     1.26100
H104        H  0.57180334  0.52338981  0.91524344     0.38800
O105        O  0.69520071  0.70065296  0.39416302    -0.81100
O106        O  0.69242870  0.79241088  0.43095364    -0.65800
O107        O  0.68489345  0.73778892  0.41080646    -1.12400
C108        C  0.68985371  0.75723858  0.28218391     1.05800
O109        O  0.68037267  0.80126867  0.38688141    -0.79000
O110        O  0.66979442  0.77670613  0.33940712    -0.66600
Ni111      Ni  0.69174210  0.71650491  0.43827002     1.34900
C112        C  0.66600780  0.75913269  0.34021902     0.84500
O113        O  0.68575467  0.76215659  0.47570211    -0.79600
O114        O  0.68892173  0.72960950  0.48574715    -0.89800
C115        C  0.68715428  0.80594537  0.41311964     0.84100
O116        O  0.70667180  0.72645955  0.43761069    -0.68000
O117        O  0.68808270  0.77496364  0.29365163    -0.87300
C118        C  0.71047156  0.74400626  0.43987888     0.84900
C119        C  0.68681013  0.74713112  0.49748564     1.06500
H120        H  0.69973491  0.76768581  0.36517159     0.38300
O121        O  0.69175041  0.76628222  0.36913414    -1.10000
O122        O  0.67204489  0.74409542  0.34799993    -0.66600
Ni123      Ni  0.68779384  0.73950849  0.35744052     1.26300
O124        O  0.70456649  0.75947250  0.43338952    -0.66900
O125        O  0.69065007  0.74227074  0.30421484    -0.79200
C126        C  0.68955299  0.69807807  0.36399478     0.84300
O127        O  0.68433863  0.71225366  0.34820313    -0.66300
Ni128      Ni  0.68459602  0.78725198  0.34156395     1.27400
Ni129      Ni  0.68886684  0.76473438  0.42259558     1.26100
H130        H  0.67693888  0.73651676  0.41480459     0.38800
O131        O  0.69925653  0.70283393  0.88719688    -0.81100
O132        O  0.69506526  0.79092069  0.93221914    -0.65800
O133        O  0.68741166  0.73714556  0.90984926    -1.12400
C134        C  0.68927319  0.75904421  0.78202234     1.05800
O135        O  0.68231586  0.80131868  0.89148137    -0.79000
O136        O  0.67040901  0.77675802  0.84598739    -0.66600
Ni137      Ni  0.69477783  0.71551890  0.93427836     1.34900
C138        C  0.66689060  0.75894699  0.84649106     0.84500
O139        O  0.68962106  0.75947351  0.97662937    -0.79600
O140        O  0.69056596  0.72614903  0.98294881    -0.89800
C141        C  0.68987041  0.80498444  0.91588405     0.84100
O142        O  0.70953102  0.72669991  0.94023704    -0.68000
O143        O  0.68758482  0.77640924  0.79531424    -0.87300
C144        C  0.71324926  0.74434486  0.93753824     0.84900
C145        C  0.68955105  0.74362278  0.99677259     1.06500
H146        H  0.70084091  0.76845486  0.86289326     0.38300
O147        O  0.69298180  0.76664384  0.86878919    -1.10000
O148        O  0.67330160  0.74403795  0.85112370    -0.66600
Ni149      Ni  0.68922792  0.73998003  0.85627362     1.26300
O150        O  0.70718814  0.75891202  0.92719139    -0.66900
O151        O  0.69081802  0.74372904  0.80268697    -0.79200
C152        C  0.69271164  0.69935288  0.85933303     0.84300
O153        O  0.68622573  0.71271535  0.84662481    -0.66300
Ni154      Ni  0.68517376  0.78787252  0.84446283     1.27400
Ni155      Ni  0.69133965  0.76366481  0.92271201     1.26100
H156        H  0.67950354  0.73561451  0.91542095     0.38800
O157        O  0.55180920  0.70554447  0.23146104    -0.81100
O158        O  0.55742868  0.79381254  0.19356609    -0.65800
O159        O  0.56430845  0.73977416  0.21482435    -1.12400
C160        C  0.56196623  0.75722911  0.34263450     1.05800
O161        O  0.56721604  0.80646071  0.24175984    -0.79000
O162        O  0.58052484  0.77736289  0.27018891    -0.66600
Ni163      Ni  0.55748688  0.71878987  0.18684245     1.34900
C164        C  0.58385473  0.75973357  0.27633431     0.84500
O165        O  0.56376603  0.76339675  0.14971499    -0.79600
O166        O  0.56243360  0.73039926  0.13976462    -0.89800
C167        C  0.56180129  0.80837257  0.21090099     0.84100
O168        O  0.54305177  0.73004515  0.17889581    -0.68000
O169        O  0.56607434  0.77352306  0.33078898    -0.87300
C170        C  0.53928370  0.74761554  0.18042111     0.84900
C171        C  0.56384971  0.74819535  0.12796858     1.06500
H172        H  0.54996160  0.77109629  0.26102464     0.38300
O173        O  0.55788385  0.76871447  0.25657067    -1.10000
O174        O  0.57712297  0.74504844  0.27827450    -0.66600
Ni175      Ni  0.56120341  0.74147548  0.26779362     1.26300
O176        O  0.54496380  0.76224358  0.19287882    -0.66900
O177        O  0.55805045  0.74400259  0.32063694    -0.79200
C178        C  0.55764519  0.70104014  0.26037130     0.84300
O179        O  0.56384994  0.71389167  0.27612270    -0.66300
Ni180      Ni  0.56632459  0.78830317  0.28384258     1.27400
Ni181      Ni  0.56072745  0.76654710  0.20298819     1.26100
H182        H  0.57226397  0.73828137  0.21126327     0.38800
O183        O  0.55155495  0.70556951  0.73789301    -0.81100
O184        O  0.55806458  0.79218004  0.68956566    -0.65800
O185        O  0.56422660  0.73783603  0.71409542    -1.12400
C186        C  0.56233052  0.76115584  0.84208374     1.05800
O187        O  0.57082376  0.80084181  0.73125271    -0.79000
O188        O  0.58144817  0.77709721  0.78092669    -0.66600
Ni189      Ni  0.55652598  0.71654300  0.69045991     1.34900
C190        C  0.58504331  0.75941592  0.77796379     0.84500
O191        O  0.56298850  0.75928101  0.64623152    -0.79600
O192        O  0.56138150  0.72587555  0.64189571    -0.89800
C193        C  0.56343728  0.80568972  0.70705345     0.84100
O194        O  0.54214907  0.72888372  0.68262206    -0.68000
O195        O  0.56356702  0.77853417  0.82824709    -0.87300
C196        C  0.53882864  0.74682652  0.68377880     0.84900
C197        C  0.56288568  0.74297920  0.62711176     1.06500
H198        H  0.55124087  0.76983579  0.75955699     0.38300
O199        O  0.55913144  0.76780685  0.75424493    -1.10000
O200        O  0.57866099  0.74464373  0.77146659    -0.66600
Ni201      Ni  0.56261430  0.74106888  0.76781282     1.26300
O202        O  0.54505785  0.76117571  0.69392497    -0.66900
O203        O  0.56137279  0.74545738  0.82183220    -0.79200
C204        C  0.55853440  0.70051377  0.76345321     0.84300
O205        O  0.56514344  0.71337046  0.77764205    -0.66300
Ni206      Ni  0.56691862  0.78892798  0.77880523     1.27400
Ni207      Ni  0.56100202  0.76447920  0.70007144     1.26100
H208        H  0.57208646  0.73565596  0.70848367     0.38800
O209        O  0.69621513  0.05493514  0.48298710    -0.81100
O210        O  0.69031655  0.96821232  0.43914518    -0.65800
O211        O  0.68332011  0.02231901  0.46214658    -1.12400
C212        C  0.68488247  0.00006812  0.58974976     1.05800
O213        O  0.67690956  0.95922673  0.47871143    -0.79000
O214        O  0.66555643  0.98445506  0.52475665    -0.66600
Ni215      Ni  0.69010142  0.04393912  0.43688212     1.34900
C216        C  0.66261707  0.00258735  0.52586277     0.84500
O217        O  0.68579078  0.00082589  0.39443557    -0.79600
O218        O  0.68425103  0.03421276  0.38982711    -0.89800
C219        C  0.68432708  0.95465642  0.45428104     0.84100
O220        O  0.70424709  0.03209609  0.42459769    -0.68000
O221        O  0.68248256  0.98306058  0.57594095    -0.87300
C222        C  0.70846910  0.01495591  0.42946597     0.84900
C223        C  0.68454585  0.01688991  0.37505354     1.06500
H224        H  0.69627075  0.99002620  0.50881476     0.38300
O225        O  0.68848782  0.99260298  0.50273782    -1.10000
O226        O  0.66948155  0.01684966  0.52170064    -0.66600
Ni227      Ni  0.68544196  0.01953626  0.51565429     1.26300
O228        O  0.70307981  0.00069269  0.44478921    -0.66900
O229        O  0.68712796  0.01532884  0.56942875    -0.79200
C230        C  0.68986417  0.06007271  0.51030244     0.84300
O231        O  0.68329556  0.04735456  0.52509579    -0.66300
Ni232      Ni  0.67998954  0.97205876  0.52629779     1.27400
Ni233      Ni  0.68712052  0.99590508  0.44866982     1.26100
H234        H  0.67536433  0.02371738  0.45726280     0.38800
O235        O  0.69259594  0.05758537  0.97885189    -0.81100
O236        O  0.69277781  0.96631558  0.94051298    -0.65800
O237        O  0.68329750  0.01941377  0.96290688    -1.12400
C238        C  0.68708755  0.00114394  0.09023724     1.05800
O239        O  0.68290175  0.95267484  0.98739104    -0.79000
O240        O  0.66870223  0.97959207  0.01862990    -0.66600
Ni241      Ni  0.68884482  0.04168136  0.93483170     1.34900
C242        C  0.66484066  0.99688576  0.02473561     0.84500
O243        O  0.68449167  0.99574472  0.89736956    -0.79600
O244        O  0.68553041  0.02869735  0.88752082    -0.89800
C245        C  0.68895831  0.95121833  0.95785195     0.84100
O246        O  0.70409184  0.03333808  0.93094326    -0.68000
O247        O  0.68351718  0.98448821  0.07811994    -0.87300
C248        C  0.70861616  0.01627809  0.92918902     0.84900
C249        C  0.68427681  0.01092848  0.87570187     1.06500
H250        H  0.69923381  0.98964401  0.00763829     0.38300
O251        O  0.69122208  0.99109453  0.00351752    -1.10000
O252        O  0.67116681  0.01205977  0.02689325    -0.66600
Ni253      Ni  0.68678787  0.01767428  0.01577509     1.26300
O254        O  0.70351844  0.00028173  0.93833338    -0.66900
O255        O  0.69034812  0.01497406  0.06832344    -0.79200
C256        C  0.68748914  0.05924083  0.01040997     0.84300
O257        O  0.68276782  0.04453440  0.02600007    -0.66300
Ni258      Ni  0.68348512  0.97028834  0.03041558     1.27400
Ni259      Ni  0.68810837  0.99312657  0.95019065     1.26100
H260        H  0.67533008  0.01960487  0.95973493     0.38800
O261        O  0.55425731  0.05964671  0.15376374    -0.81100
O262        O  0.55768878  0.96773036  0.18493621    -0.65800
O263        O  0.56494799  0.02253194  0.16696152    -1.12400
C264        C  0.55780817  0.00536041  0.03806186     1.05800
O265        O  0.56886287  0.95984573  0.13790679    -0.79000
O266        O  0.57878699  0.98482262  0.09052832    -0.66600
Ni267      Ni  0.55834105  0.04321341  0.19665402     1.34900
C268        C  0.58267883  0.00230584  0.09139139     0.84500
O269        O  0.56550346  0.99722480  0.23059468    -0.79600
O270        O  0.56200980  0.02947799  0.24274762    -0.89800
C271        C  0.56224975  0.95461532  0.16407945     0.84100
O272        O  0.54339627  0.03290208  0.19924691    -0.68000
O273        O  0.55985002  0.98755136  0.04828753    -0.87300
C274        C  0.54002096  0.01515291  0.20375544     0.84900
C275        C  0.56457038  0.01193918  0.25337238     1.06500
H276        H  0.54923773  0.99358992  0.12268213     0.38300
O277        O  0.55727888  0.99485985  0.12496918    -1.10000
O278        O  0.57678467  0.01721718  0.10105728    -0.66600
Ni279      Ni  0.56120834  0.02171382  0.11401714     1.26300
O280        O  0.54589269  0.00012340  0.19413791    -0.66900
O281        O  0.55740442  0.01999028  0.06106481    -0.79200
C282        C  0.55983172  0.06278376  0.12355683     0.84300
O283        O  0.56475550  0.04888431  0.10610003    -0.66300
Ni284      Ni  0.56399231  0.97446634  0.09452448     1.27400
Ni285      Ni  0.56123937  0.99544221  0.17797535     1.26100
H286        H  0.57298920  0.02388039  0.16963506     0.38800
O287        O  0.54833437  0.05610087  0.64473582    -0.81100
O288        O  0.55422985  0.96733746  0.68540873    -0.65800
O289        O  0.56047922  0.02223941  0.66685251    -1.12400
C290        C  0.56132657  0.00153024  0.53833655     1.05800
O291        O  0.56848906  0.95939788  0.64848330    -0.79000
O292        O  0.58004520  0.98605876  0.60628725    -0.66600
Ni293      Ni  0.55259000  0.04312793  0.69146655     1.34900
C294        C  0.58269642  0.00432043  0.60741999     0.84500
O295        O  0.55758550  0.99882872  0.73216903    -0.79600
O296        O  0.55640062  0.03208255  0.73989316    -0.89800
C297        C  0.56085605  0.95433052  0.67174887     0.84100
O298        O  0.53819646  0.03078624  0.69500789    -0.68000
O299        O  0.56390527  0.98451705  0.55177671    -0.87300
C300        C  0.53470480  0.01310095  0.69072819     0.84900
C301        C  0.55721014  0.01443283  0.75290757     1.06500
H302        H  0.54892467  0.98993272  0.61603502     0.38300
O303        O  0.55654455  0.99276738  0.62375200    -1.10000
O304        O  0.57550610  0.01812126  0.61037650    -0.66600
Ni305      Ni  0.55944897  0.02001267  0.61285368     1.26300
O306        O  0.54095770  0.99888311  0.67952550    -0.66900
O307        O  0.55866765  0.01649862  0.55877428    -0.79200
C308        C  0.55534068  0.06080494  0.61900916     0.84300
O309        O  0.56177390  0.04775759  0.60483264    -0.66300
Ni310      Ni  0.56587687  0.97295479  0.60115704     1.27400
Ni311      Ni  0.55703848  0.99522894  0.67787680     1.26100
H312        H  0.56827196  0.02412583  0.67368013     0.38800
O313        O  0.69734820  0.20171678  0.14639471    -0.81100
O314        O  0.69503342  0.29102177  0.18173712    -0.65800
O315        O  0.68609516  0.23736538  0.16340675    -1.12400
C316        C  0.68938948  0.25536567  0.03425775     1.05800
O317        O  0.68310236  0.30215238  0.13844213    -0.79000
O318        O  0.67053589  0.27644229  0.09907620    -0.66600
Ni319      Ni  0.69238024  0.21575960  0.19117440     1.34900
C320        C  0.66667287  0.25891630  0.09760840     0.84500
O321        O  0.68902251  0.26097177  0.22852332    -0.79600
O322        O  0.68785241  0.22788763  0.23799543    -0.89800
C323        C  0.68987655  0.30525152  0.16562580     0.84100
O324        O  0.70715447  0.22602270  0.19878055    -0.68000
O325        O  0.68712091  0.27286899  0.04581374    -0.87300
C326        C  0.71162742  0.24292519  0.19368701     0.84900
C327        C  0.68807243  0.24575492  0.25015921     1.06500
H328        H  0.70068336  0.26660033  0.11464614     0.38300
O329        O  0.69274897  0.26531522  0.12026280    -1.10000
O330        O  0.67278991  0.24348439  0.10111303    -0.66600
Ni331      Ni  0.68859068  0.23846197  0.10983290     1.26300
O332        O  0.70643385  0.25768836  0.17968626    -0.66900
O333        O  0.69112060  0.24063074  0.05628150    -0.79200
C334        C  0.69093476  0.19754227  0.11868452     0.84300
O335        O  0.68511213  0.21095818  0.10270297    -0.66300
Ni336      Ni  0.68541050  0.28629306  0.09371573     1.27400
Ni337      Ni  0.69078679  0.26379056  0.17421459     1.26100
H338        H  0.67808328  0.23686839  0.16799727     0.38800
O339        O  0.69707110  0.20351044  0.64059490    -0.81100
O340        O  0.69447665  0.29154657  0.68686879    -0.65800
O341        O  0.68582725  0.23860931  0.66195696    -1.12400
C342        C  0.68824449  0.25916458  0.53524682     1.05800
O343        O  0.68419308  0.30561503  0.64138065    -0.79000
O344        O  0.67031575  0.27942502  0.60873094    -0.66600
Ni345      Ni  0.69229882  0.21626105  0.68692416     1.34900
C346        C  0.66640216  0.26212943  0.60371573     0.84500
O347        O  0.68823551  0.26021317  0.72940774    -0.79600
O348        O  0.68781643  0.22685512  0.73496498    -0.89800
C349        C  0.69009349  0.30670240  0.67133104     0.84100
O350        O  0.70715631  0.22640762  0.69493213    -0.68000
O351        O  0.68498633  0.27579165  0.54851959    -0.87300
C352        C  0.71138568  0.24369291  0.69265416     0.84900
C353        C  0.68757951  0.24427049  0.74918055     1.06500
H354        H  0.70052663  0.26946348  0.61666376     0.38300
O355        O  0.69258544  0.26787519  0.62196428    -1.10000
O356        O  0.67255994  0.24671258  0.60094679    -0.66600
Ni357      Ni  0.68838505  0.24127897  0.60892293     1.26300
O358        O  0.70595028  0.25881350  0.68146674    -0.66900
O359        O  0.69117683  0.24463176  0.55601579    -0.79200
C360        C  0.69063132  0.20036155  0.61244076     0.84300
O361        O  0.68469130  0.21424677  0.59880914    -0.66300
Ni362      Ni  0.68487774  0.28909021  0.59703055     1.27400
Ni363      Ni  0.69032203  0.26471192  0.67567663     1.26100
H364        H  0.67785327  0.23777148  0.66647921     0.38800
O365        O  0.55366402  0.20607501  0.49574361    -0.81100
O366        O  0.55846287  0.29500930  0.45222738    -0.65800
O367        O  0.56546181  0.24118085  0.47704668    -1.12400
C368        C  0.56093547  0.26166216  0.60425727     1.05800
O369        O  0.56854365  0.30790263  0.49919807    -0.79000
O370        O  0.58074244  0.28124011  0.53887080    -0.66600
Ni371      Ni  0.55855720  0.21966161  0.45032039     1.34900
C372        C  0.58418404  0.26361350  0.54405988     0.84500
O373        O  0.56476466  0.26382328  0.40988204    -0.79600
O374        O  0.56292734  0.23075057  0.40236606    -0.89800
C375        C  0.56287655  0.30979847  0.46883296     0.84100
O376        O  0.54382372  0.23071623  0.44353127    -0.68000
O377        O  0.56408893  0.27858162  0.59198429    -0.87300
C378        C  0.54016601  0.24847699  0.44321832     0.84900
C379        C  0.56429611  0.24822672  0.38917104     1.06500
H380        H  0.55066506  0.27258371  0.51995155     0.38300
O381        O  0.55864476  0.27070491  0.51648093    -1.10000
O382        O  0.57781828  0.24844816  0.54175092    -0.66600
Ni383      Ni  0.56213988  0.24380630  0.52993842     1.26300
O384        O  0.54610454  0.26327225  0.45319360    -0.66900
O385        O  0.55859765  0.24714103  0.58252328    -0.79200
C386        C  0.55956605  0.20264169  0.52514179     0.84300
O387        O  0.56524396  0.21642000  0.54040528    -0.66300
Ni388      Ni  0.56598532  0.29169428  0.54360724     1.27400
Ni389      Ni  0.56179757  0.26781087  0.46320457     1.26100
H390        H  0.57345890  0.23961079  0.47394889     0.38800
O391        O  0.55118771  0.20676287  0.99955932    -0.81100
O392        O  0.55518917  0.29383906  0.95376761    -0.65800
O393        O  0.56308193  0.24040464  0.97624307    -1.12400
C394        C  0.56214231  0.26242790  0.10372303     1.05800
O395        O  0.56838452  0.30497725  0.99266238    -0.79000
O396        O  0.58086470  0.27972594  0.03526178    -0.66600
Ni397      Ni  0.55572646  0.21868543  0.95217288     1.34900
C398        C  0.58418028  0.26185068  0.03772582     0.84500
O399        O  0.56010298  0.26229169  0.90950189    -0.79600
O400        O  0.55991466  0.22890390  0.90330366    -0.89800
C401        C  0.56100092  0.30796166  0.96718008     0.84100
O402        O  0.54102342  0.22975323  0.94518461    -0.68000
O403        O  0.56469236  0.27941589  0.08999673    -0.87300
C404        C  0.53703774  0.24719271  0.94818500     0.84900
C405        C  0.56043067  0.24643265  0.88946715     1.06500
H406        H  0.55002967  0.27222816  0.02409910     0.38300
O407        O  0.55779766  0.27008208  0.01734133    -1.10000
O408        O  0.57756477  0.24704789  0.03552248    -0.66600
Ni409      Ni  0.56150750  0.24336744  0.02993079     1.26300
O410        O  0.54284597  0.26184657  0.96000527    -0.66900
O411        O  0.55983293  0.24730043  0.08340326    -0.79200
C412        C  0.55810933  0.20280272  0.02600073     0.84300
O413        O  0.56448762  0.21608435  0.03943923    -0.66300
Ni414      Ni  0.56623875  0.29106183  0.04011359     1.27400
Ni415      Ni  0.55885960  0.26672286  0.96340306     1.26100
H416        H  0.57095004  0.23904793  0.97034443     0.38800
O417        O  0.93434895  0.55338143  0.35593299    -0.81100
O418        O  0.93394098  0.46474183  0.39946960    -0.65800
O419        O  0.94360520  0.51769855  0.38027766    -1.12400
C420        C  0.94138776  0.49579344  0.25133575     1.05800
O421        O  0.94754175  0.45437004  0.36150404    -0.79000
O422        O  0.95923578  0.47618521  0.30859268    -0.66600
Ni423      Ni  0.93678718  0.54007898  0.40364143     1.34900
C424        C  0.96386887  0.49309689  0.31186655     0.84500
O425        O  0.93879824  0.49531654  0.44574960    -0.79600
O426        O  0.93887672  0.52856415  0.45307933    -0.89800
C427        C  0.94035765  0.45098036  0.38752254     0.84100
O428        O  0.92148518  0.53131065  0.40393245    -0.68000
O429        O  0.94083662  0.47820041  0.26488496    -0.87300
C430        C  0.91687077  0.51436354  0.40106261     0.84900
C431        C  0.93859330  0.51092649  0.46645647     1.06500
H432        H  0.92960616  0.48932793  0.33014358     0.38300
O433        O  0.93743125  0.48953393  0.33744656    -1.10000
O434        O  0.95864608  0.50837065  0.32390130    -0.66600
Ni435      Ni  0.94289044  0.51528317  0.32605897     1.26300
O436        O  0.92236037  0.49855246  0.39348460    -0.66900
O437        O  0.94206160  0.51149801  0.27178220    -0.79200
C438        C  0.94203972  0.55641889  0.33157790     0.84300
O439        O  0.94767966  0.54207585  0.31804075    -0.66300
Ni440      Ni  0.94404400  0.46709243  0.31386535     1.27400
Ni441      Ni  0.93819948  0.49181404  0.39152383     1.26100
H442        H  0.95142326  0.51802612  0.38770176     0.38800
O443        O  0.93201086  0.55461748  0.87146702    -0.81100
O444        O  0.93178474  0.46236142  0.89937761    -0.65800
O445        O  0.94036005  0.51572491  0.88004956    -1.12400
C446        C  0.93212610  0.49930550  0.75166277     1.05800
O447        O  0.94101466  0.44995304  0.85032645    -0.79000
O448        O  0.95256386  0.47583479  0.80494678    -0.66600
Ni449      Ni  0.93357734  0.53567819  0.91181220     1.34900
C450        C  0.95670879  0.49318361  0.80247519     0.84500
O451        O  0.94121110  0.48986858  0.94208111    -0.79600
O452        O  0.93483310  0.51992973  0.95735517    -0.89800
C453        C  0.93622040  0.44791527  0.88237400     0.84100
O454        O  0.91842560  0.52741021  0.90402620    -0.68000
O455        O  0.93400328  0.48147196  0.76208177    -0.87300
C456        C  0.91453432  0.50995923  0.90711336     0.84900
C457        C  0.93919613  0.50331340  0.96635812     1.06500
H458        H  0.92349494  0.48799056  0.83701199     0.38300
O459        O  0.93158138  0.48855160  0.83855956    -1.10000
O460        O  0.95133498  0.50885974  0.81184886    -0.66600
Ni461      Ni  0.93609526  0.51524521  0.82740362     1.26300
O462        O  0.92077151  0.49462420  0.90580530    -0.66900
O463        O  0.93169194  0.51392512  0.77477511    -0.79200
C464        C  0.93700663  0.55692570  0.83995143     0.84300
O465        O  0.94030598  0.54243938  0.81963833    -0.66300
Ni466      Ni  0.93729163  0.46721476  0.80802112     1.27400
Ni467      Ni  0.93608569  0.48897398  0.89064237     1.26100
H468        H  0.94842521  0.51684880  0.88224025     0.38800
O469        O  0.81743864  0.55291540  0.01549002    -0.81100
O470        O  0.81401470  0.46399239  0.97520093    -0.65800
O471        O  0.80624190  0.51783578  0.99617736    -1.12400
C472        C  0.81025373  0.49749670  0.12455566     1.05800
O473        O  0.80205838  0.45263301  0.01823969    -0.79000
O474        O  0.79036199  0.47825055  0.06341216    -0.66600
Ni475      Ni  0.81340408  0.53917362  0.96962773     1.34900
C476        C  0.78682947  0.49601088  0.06602525     0.84500
O477        O  0.80884583  0.49448217  0.93012668    -0.79600
O478        O  0.81000520  0.52749025  0.92129565    -0.89800
C479        C  0.80834996  0.44989440  0.98946002     0.84100
O480        O  0.82824963  0.52847834  0.96718413    -0.68000
O481        O  0.80796441  0.48012999  0.11221511    -0.87300
C482        C  0.83223014  0.51107272  0.97067957     0.84900
C483        C  0.80937247  0.50977261  0.90868528     1.06500
H484        H  0.82043469  0.48731684  0.04313603     0.38300
O485        O  0.81251572  0.48891276  0.03789449    -1.10000
O486        O  0.79299802  0.51111632  0.05976597    -0.66600
Ni487      Ni  0.80876040  0.51574941  0.04989526     1.26300
O488        O  0.82627490  0.49604881  0.97893498    -0.66900
O489        O  0.81159837  0.51260978  0.10312646    -0.79200
C490        C  0.81057372  0.55693447  0.04189463     0.84300
O491        O  0.80527508  0.54319018  0.05873518    -0.66300
Ni492      Ni  0.80524537  0.46766415  0.06385198     1.27400
Ni493      Ni  0.81045644  0.49120494  0.98416906     1.26100
H494        H  0.79824327  0.51910976  0.99162890     0.38800
O495        O  0.81880723  0.55135467  0.51671872    -0.81100
O496        O  0.81819059  0.46354943  0.47297002    -0.65800
O497        O  0.80818514  0.51608844  0.49688362    -1.12400
C498        C  0.81350820  0.49526400  0.62398162     1.05800
O499        O  0.80701442  0.45018262  0.51618796    -0.79000
O500        O  0.79422532  0.47411751  0.56183490    -0.66600
Ni501      Ni  0.81424501  0.53856280  0.47077600     1.34900
C502        C  0.79002510  0.49132411  0.56643033     0.84500
O503        O  0.81114312  0.49419145  0.42964739    -0.79600
O504        O  0.81018551  0.52748609  0.42282091    -0.89800
C505        C  0.81346069  0.44841759  0.48745507     0.84100
O506        O  0.82936623  0.52969575  0.46417840    -0.68000
O507        O  0.81175677  0.47777639  0.61117974    -0.87300
C508        C  0.83419180  0.51303074  0.46829362     0.84900
C509        C  0.81017801  0.50991107  0.40941201     1.06500
H510        H  0.82385333  0.48696685  0.54175084     0.38300
O511        O  0.81586303  0.48767159  0.53698099    -1.10000
O512        O  0.79564156  0.50724040  0.56132380    -0.66600
Ni513      Ni  0.81112498  0.51396109  0.55025768     1.26300
O514        O  0.82900049  0.49730049  0.47764584    -0.66900
O515        O  0.81433781  0.51071006  0.60313374    -0.79200
C516        C  0.81199450  0.55522026  0.54324197     0.84300
O517        O  0.80685817  0.54119176  0.56003819    -0.66300
Ni518      Ni  0.80952057  0.46534728  0.56233243     1.27400
Ni519      Ni  0.81343118  0.49024678  0.48341555     1.26100
H520        H  0.80013085  0.51633745  0.49296576     0.38800
O521        O  0.93002974  0.20816597  0.00878104    -0.81100
O522        O  0.93409184  0.29646810  0.97648536    -0.65800
O523        O  0.94215594  0.24227072  0.99176057    -1.12400
C524        C  0.93884606  0.25949917  0.12083232     1.05800
O525        O  0.94693500  0.30650135  0.01798491    -0.79000
O526        O  0.95930730  0.27889479  0.05743974    -0.66600
Ni527      Ni  0.93465621  0.22178957  0.96377614     1.34900
C528        C  0.96235861  0.26099324  0.06264124     0.84500
O529        O  0.93882703  0.26688371  0.92772300    -0.79600
O530        O  0.93854238  0.23391994  0.91646990    -0.89800
C531        C  0.93990265  0.31015606  0.99157670     0.84100
O532        O  0.91991851  0.23289423  0.96057676    -0.68000
O533        O  0.94245139  0.27643915  0.10992658    -0.87300
C534        C  0.91574967  0.24974653  0.96833232     0.84900
C535        C  0.93885548  0.25192463  0.90532127     1.06500
H536        H  0.92862268  0.27240568  0.04280806     0.38300
O537        O  0.93640639  0.27032072  0.03624925    -1.10000
O538        O  0.95565512  0.24641718  0.05755594    -0.66600
Ni539      Ni  0.93972823  0.24309678  0.04564565     1.26300
O540        O  0.92172178  0.26430156  0.97941561    -0.66900
O541        O  0.93656315  0.24522950  0.09840068    -0.79200
C542        C  0.93690029  0.20259342  0.03397817     0.84300
O543        O  0.94261946  0.21527727  0.05214746    -0.66300
Ni544      Ni  0.94460163  0.29024667  0.06259341     1.27400
Ni545      Ni  0.93774776  0.26908711  0.98231953     1.26100
H546        H  0.95014175  0.24110141  0.98685715     0.38800
O547        O  0.93160262  0.20800406  0.51421608    -0.81100
O548        O  0.93508336  0.29547890  0.46834643    -0.65800
O549        O  0.94304214  0.24189808  0.49207438    -1.12400
C550        C  0.93823329  0.26405379  0.61973487     1.05800
O551        O  0.94726170  0.30645391  0.51085935    -0.79000
O552        O  0.95842500  0.28278586  0.56109605    -0.66600
Ni553      Ni  0.93573091  0.22018149  0.46728731     1.34900
C554        C  0.96227591  0.26523641  0.56359395     0.84500
O555        O  0.94047332  0.26402422  0.42471227    -0.79600
O556        O  0.93914782  0.23075519  0.41828398    -0.89800
C557        C  0.94064353  0.30960514  0.48307727     0.84100
O558        O  0.92089642  0.23068556  0.46390367    -0.68000
O559        O  0.94009871  0.28144244  0.60649656    -0.87300
C560        C  0.91687145  0.24808147  0.46609461     0.84900
C561        C  0.94000509  0.24820765  0.40458188     1.06500
H562        H  0.92867495  0.27242388  0.53740759     0.38300
O563        O  0.93662023  0.27111467  0.53236381    -1.10000
O564        O  0.95647766  0.24985200  0.55553102    -0.66600
Ni565      Ni  0.94067097  0.24463657  0.54583857     1.26300
O566        O  0.92280902  0.26330905  0.47323078    -0.66900
O567        O  0.93776622  0.24848269  0.59901295    -0.79200
C568        C  0.93872699  0.20364886  0.53947466     0.84300
O569        O  0.94429576  0.21725627  0.55578078    -0.66300
Ni570      Ni  0.94348055  0.29291285  0.55757467     1.27400
Ni571      Ni  0.93869490  0.26826377  0.47859067     1.26100
H572        H  0.95102911  0.24057224  0.48731993     0.38800
O573        O  0.81921810  0.20627685  0.35182841    -0.81100
O574        O  0.81848851  0.29565676  0.38590924    -0.65800
O575        O  0.80887460  0.24228442  0.36882453    -1.12400
C576        C  0.81043701  0.26050172  0.23962481     1.05800
O577        O  0.80579764  0.30765104  0.34600615    -0.79000
O578        O  0.79225740  0.28076923  0.30873216    -0.66600
Ni579      Ni  0.81540245  0.22081892  0.39679679     1.34900
C580        C  0.78879434  0.26309934  0.30366543     0.84500
O581        O  0.81277772  0.26639798  0.43315492    -0.79600
O582        O  0.81197493  0.23350663  0.44410754    -0.89800
C583        C  0.81278850  0.31010805  0.37308820     0.84100
O584        O  0.83052820  0.23031522  0.39962608    -0.68000
O585        O  0.80789942  0.27762555  0.25266356    -0.87300
C586        C  0.83510237  0.24698611  0.39292016     0.84900
C587        C  0.81213564  0.25148638  0.45545847     1.06500
H588        H  0.82292784  0.27173786  0.31775379     0.38300
O589        O  0.81513841  0.27018469  0.32477541    -1.10000
O590        O  0.79517159  0.24800547  0.30621959    -0.66600
Ni591      Ni  0.81093343  0.24318907  0.31467215     1.26300
O592        O  0.82966511  0.26216837  0.38175740    -0.66900
O593        O  0.81298620  0.24564049  0.26064133    -0.79200
C594        C  0.81204449  0.20190465  0.32661252     0.84300
O595        O  0.80710548  0.21556536  0.30810155    -0.66300
Ni596      Ni  0.80704752  0.29117472  0.30073423     1.27400
Ni597      Ni  0.81394012  0.26867417  0.37880078     1.26100
H598        H  0.80089835  0.24196985  0.37412030     0.38800
O599        O  0.82011004  0.21020761  0.84876250    -0.81100
O600        O  0.81540236  0.29707840  0.89161390    -0.65800
O601        O  0.80787461  0.24349232  0.86728691    -1.12400
C602        C  0.81213966  0.26457778  0.74042602     1.05800
O603        O  0.80362670  0.30864862  0.84831696    -0.79000
O604        O  0.79196301  0.28244866  0.80510825    -0.66600
Ni605      Ni  0.81448914  0.22190766  0.89423256     1.34900
C606        C  0.78886736  0.26466490  0.79941823     0.84500
O607        O  0.80935978  0.26563436  0.93474418    -0.79600
O608        O  0.80917488  0.23229712  0.94135013    -0.89800
C609        C  0.80995149  0.31140502  0.87701147     0.84100
O610        O  0.82910673  0.23271941  0.90325916    -0.68000
O611        O  0.80907919  0.28144925  0.75345712    -0.87300
C612        C  0.83336962  0.24982920  0.89879491     0.84900
C613        C  0.80848265  0.24982629  0.95481517     1.06500
H614        H  0.82234100  0.27498811  0.82301253     0.38300
O615        O  0.81442153  0.27283429  0.82753893    -1.10000
O616        O  0.79544044  0.24986520  0.80245534    -0.66600
Ni617      Ni  0.81109384  0.24590074  0.81409000     1.26300
O618        O  0.82770846  0.26480684  0.88788502    -0.66900
O619        O  0.81431301  0.24953890  0.76125866    -0.79200
C620        C  0.81343324  0.20513095  0.82262215     0.84300
O621        O  0.80812754  0.21832688  0.80422255    -0.66300
Ni622      Ni  0.80662356  0.29375282  0.80231549     1.27400
Ni623      Ni  0.81188068  0.26986942  0.88103840     1.26100
H624        H  0.79983433  0.24228175  0.87055036     0.38800
O625        O  0.93250801  0.70654609  0.26930653    -0.81100
O626        O  0.93415414  0.79600534  0.22971226    -0.65800
O627        O  0.94251850  0.74207869  0.24747878    -1.12400
C628        C  0.93943018  0.76070525  0.37792478     1.05800
O629        O  0.94617575  0.80656575  0.27324070    -0.79000
O630        O  0.95781311  0.78241402  0.32203649    -0.66600
Ni631      Ni  0.93491440  0.72070610  0.22267776     1.34900
C632        C  0.96225901  0.76527036  0.32034402     0.84500
O633        O  0.93955417  0.76575834  0.18278263    -0.79600
O634        O  0.93697008  0.73287172  0.17404917    -0.89800
C635        C  0.93979349  0.80992330  0.24491320     0.84100
O636        O  0.91980940  0.73068435  0.22423632    -0.68000
O637        O  0.93961087  0.77869791  0.36629696    -0.87300
C638        C  0.91581419  0.74820806  0.22496409     0.84900
C639        C  0.93837538  0.75045998  0.16148310     1.06500
H640        H  0.92822382  0.77025334  0.29707969     0.38300
O641        O  0.93615115  0.76990266  0.29134028    -1.10000
O642        O  0.95699971  0.75002323  0.30807831    -0.66600
Ni643      Ni  0.94119008  0.74354893  0.30167516     1.26300
O644        O  0.92190994  0.76343530  0.23116596    -0.66900
O645        O  0.93949236  0.74572183  0.35571885    -0.79200
C646        C  0.94042261  0.70263657  0.29227597     0.84300
O647        O  0.94582825  0.71653909  0.30818550    -0.66300
Ni648      Ni  0.94262303  0.79154655  0.31848323     1.27400
Ni649      Ni  0.93787397  0.76858652  0.23707615     1.26100
H650        H  0.95040571  0.74099397  0.24095933     0.38800
O651        O  0.93061225  0.70824877  0.76987718    -0.81100
O652        O  0.93363230  0.79521476  0.72362663    -0.65800
O653        O  0.94242063  0.74230923  0.75020576    -1.12400
C654        C  0.93725537  0.76376147  0.87598995     1.05800
O655        O  0.94495140  0.80774949  0.76718261    -0.79000
O656        O  0.95728898  0.78282275  0.81001196    -0.66600
Ni657      Ni  0.93622301  0.72002211  0.72416672     1.34900
C658        C  0.96072689  0.76556625  0.81845034     0.84500
O659        O  0.94052582  0.76368646  0.68176901    -0.79600
O660        O  0.94147283  0.73031224  0.67680314    -0.89800
C661        C  0.93848327  0.81005653  0.73873204     0.84100
O662        O  0.92143468  0.72982613  0.71377764    -0.68000
O663        O  0.94041492  0.78059346  0.86289499    -0.87300
C664        C  0.91686610  0.74678698  0.71674974     0.84900
C665        C  0.94177424  0.74770236  0.66242471     1.06500
H666        H  0.92706405  0.77330011  0.79272596     0.38300
O667        O  0.93503861  0.77156325  0.78853287    -1.10000
O668        O  0.95444847  0.75027212  0.81631430    -0.66600
Ni669      Ni  0.93889013  0.74503025  0.80298587     1.26300
O670        O  0.92214405  0.76213014  0.72785547    -0.66900
O671        O  0.93502575  0.74887867  0.85498765    -0.79200
C672        C  0.93710361  0.70401386  0.79715395     0.84300
O673        O  0.94233703  0.71774293  0.81423957    -0.66300
Ni674      Ni  0.94239544  0.79297921  0.81355527     1.27400
Ni675      Ni  0.93780795  0.76830160  0.73524071     1.26100
H676        H  0.95049238  0.74155312  0.74739149     0.38800
O677        O  0.81592443  0.70596310  0.11161922    -0.81100
O678        O  0.81550580  0.79777076  0.14515833    -0.65800
O679        O  0.80749582  0.74438431  0.12385177    -1.12400
C680        C  0.81521659  0.76305940  0.99596067     1.05800
O681        O  0.80581744  0.81027813  0.09720508    -0.79000
O682        O  0.79488278  0.78537338  0.04888666    -0.66600
Ni683      Ni  0.81486625  0.72423504  0.15335851     1.34900
C684        C  0.79057166  0.76813844  0.04780539     0.84500
O685        O  0.80681324  0.76907148  0.18718659    -0.79600
O686        O  0.81415438  0.73939208  0.20001229    -0.89800
C687        C  0.81067021  0.81218253  0.12916934     0.84100
O688        O  0.82981841  0.73309098  0.14321884    -0.68000
O689        O  0.81377119  0.78090825  0.00712536    -0.87300
C690        C  0.83356564  0.75046105  0.14891393     0.84900
C691        C  0.80956165  0.75558959  0.21061551     1.06500
H692        H  0.82393215  0.77285869  0.08125045     0.38300
O693        O  0.81581480  0.77232700  0.08318411    -1.10000
O694        O  0.79587304  0.75247032  0.05763142    -0.66600
Ni695      Ni  0.81123282  0.74582067  0.07092770     1.26300
O696        O  0.82713883  0.76562387  0.14985440    -0.66900
O697        O  0.81517344  0.74806710  0.01820695    -0.79200
C698        C  0.81021742  0.70398346  0.08138354     0.84300
O699        O  0.80683205  0.71876654  0.06198281    -0.66300
Ni700      Ni  0.81005689  0.79415298  0.05386992     1.27400
Ni701      Ni  0.81161200  0.77103611  0.13550668     1.26100
H702        H  0.79946625  0.74291702  0.12693250     0.38800
O703        O  0.82039932  0.70854341  0.59850832    -0.81100
O704        O  0.81556599  0.79666463  0.64584729    -0.65800
O705        O  0.80896689  0.74213429  0.62422870    -1.12400
C706        C  0.80844172  0.76606986  0.49662609     1.05800
O707        O  0.80102416  0.80527310  0.61067852    -0.79000
O708        O  0.78978368  0.78097982  0.56046293    -0.66600
Ni709      Ni  0.81731935  0.72093202  0.64662948     1.34900
C710        C  0.78666318  0.76293707  0.56028534     0.84500
O711        O  0.81276557  0.76461727  0.69035562    -0.79600
O712        O  0.81488907  0.73152254  0.69666573    -0.89800
C713        C  0.80838363  0.80964119  0.63566241     0.84100
O714        O  0.83184447  0.73270356  0.64512634    -0.68000
O715        O  0.80686564  0.78326487  0.51120714    -0.87300
C716        C  0.83542093  0.75030764  0.64092717     0.84900
C717        C  0.81381217  0.74894972  0.71051953     1.06500
H718        H  0.82048963  0.77447807  0.57437886     0.38300
O719        O  0.81285214  0.77216249  0.58252519    -1.10000
O720        O  0.79323368  0.74855369  0.56810874    -0.66600
Ni721      Ni  0.80936256  0.74531503  0.57004483     1.26300
O722        O  0.82895610  0.76519279  0.63565857    -0.66900
O723        O  0.80985708  0.75012607  0.51604727    -0.79200
C724        C  0.81281430  0.70398874  0.57479806     0.84300
O725        O  0.80651901  0.71743125  0.56079612    -0.66300
Ni726      Ni  0.80422806  0.79331271  0.56166115     1.27400
Ni727      Ni  0.81279029  0.76893634  0.63643444     1.26100
H728        H  0.80124996  0.74017814  0.63185201     0.38800
O729        O  0.92933688  0.05295699  0.10432868    -0.81100
O730        O  0.93214529  0.96494035  0.15468290    -0.65800
O731        O  0.94033085  0.01794270  0.12624508    -1.12400
C732        C  0.93439685  0.99371980  0.00112624     1.05800
O733        O  0.94411206  0.95336422  0.11239742    -0.79000
O734        O  0.95492639  0.97588536  0.06083420    -0.66600
Ni735      Ni  0.93388424  0.04053340  0.15108596     1.34900
C736        C  0.95860666  0.99333525  0.05573407     0.84500
O737        O  0.93856129  0.99692831  0.19507970    -0.79600
O738        O  0.93795678  0.03031333  0.19997132    -0.89800
C739        C  0.93773220  0.95054284  0.14086770     0.84100
O740        O  0.91891178  0.03081651  0.15774335    -0.68000
O741        O  0.93652662  0.97654840  0.01509350    -0.87300
C742        C  0.91454723  0.01360993  0.15688623     0.84900
C743        C  0.93880770  0.01299874  0.21436930     1.06500
H744        H  0.92514126  0.98668024  0.08503353     0.38300
O745        O  0.93314226  0.98813803  0.08900559    -1.10000
O746        O  0.95269043  0.00879863  0.06166886    -0.66600
Ni747      Ni  0.93711138  0.01429969  0.07333386     1.26300
O748        O  0.92016802  0.99799022  0.14935173    -0.66900
O749        O  0.93358203  0.00950957  0.02107003    -0.79200
C750        C  0.93584180  0.05573383  0.07632213     0.84300
O751        O  0.94082580  0.04122465  0.06074941    -0.66300
Ni752      Ni  0.94001351  0.96593100  0.06490485     1.27400
Ni753      Ni  0.93590215  0.99194618  0.14206214     1.26100
H754        H  0.94837153  0.01890456  0.12946344     0.38800
O755        O  0.92792663  0.05252215  0.60801408    -0.81100
O756        O  0.93263047  0.96377816  0.64725606    -0.65800
O757        O  0.93966206  0.01796422  0.62892099    -1.12400
C758        C  0.93846980  0.99849710  0.49955280     1.05800
O759        O  0.94549582  0.95293416  0.60651684    -0.79000
O760        O  0.95812677  0.98025529  0.56678469    -0.66600
Ni761      Ni  0.93150403  0.03862473  0.65438389     1.34900
C762        C  0.96129819  0.99828772  0.56561645     0.84500
O763        O  0.93665927  0.99407185  0.69375801    -0.79600
O764        O  0.93451254  0.02688021  0.70315199    -0.89800
C765        C  0.93868496  0.94996484  0.63398021     0.84100
O766        O  0.91681248  0.02692564  0.65457019    -0.68000
O767        O  0.94192653  0.98170291  0.51190115    -0.87300
C768        C  0.91337950  0.00916863  0.65073610     0.84900
C769        C  0.93559564  0.00914692  0.71548285     1.06500
H770        H  0.92712360  0.98649184  0.57848423     0.38300
O771        O  0.93485111  0.98880573  0.58545948    -1.10000
O772        O  0.95428507  0.01256710  0.56858899    -0.66600
Ni773      Ni  0.93811236  0.01588477  0.57491396     1.26300
O774        O  0.91983741  0.99479544  0.64227650    -0.66900
O775        O  0.93593995  0.01287200  0.52144484    -0.79200
C776        C  0.93508160  0.05684688  0.58259879     0.84300
O777        O  0.94098156  0.04346695  0.56709356    -0.66300
Ni778      Ni  0.94351156  0.96868259  0.56067032     1.27400
Ni779      Ni  0.93585793  0.99105751  0.63951089     1.26100
H780        H  0.94751539  0.01975630  0.63507627     0.38800
O781        O  0.81691295  0.05028008  0.27781457    -0.81100
O782        O  0.81361855  0.96297277  0.22767361    -0.65800
O783        O  0.80604665  0.01648742  0.25199532    -1.12400
C784        C  0.80882319  0.99193044  0.37940191     1.05800
O785        O  0.80047931  0.95293216  0.26732637    -0.79000
O786        O  0.78978466  0.97480398  0.32067155    -0.66600
Ni787      Ni  0.81383940  0.03825908  0.22935856     1.34900
C788        C  0.78575584  0.99222640  0.31985412     0.84500
O789        O  0.80888113  0.99486338  0.18442340    -0.79600
O790        O  0.81141551  0.02794563  0.17895651    -0.89800
C791        C  0.80750825  0.94923868  0.24115411     0.84100
O792        O  0.82864486  0.02748366  0.22937540    -0.68000
O793        O  0.80805721  0.97460054  0.36481041    -0.87300
C794        C  0.83247827  0.00990587  0.23033277     0.84900
C795        C  0.80999915  0.01068484  0.16464243     1.06500
H796        H  0.81960869  0.98540397  0.29814004     0.38300
O797        O  0.81170797  0.98669788  0.29207928    -1.10000
O798        O  0.79147455  0.00749868  0.31064262    -0.66600
Ni799      Ni  0.80739867  0.01285875  0.30602365     1.26300
O800        O  0.82626004  0.99470509  0.23464208    -0.66900
O801        O  0.80899169  0.00795492  0.35974600    -0.79200
C802        C  0.80940073  0.05402412  0.30234721     0.84300
O803        O  0.80359711  0.04005421  0.31657717    -0.66300
Ni804      Ni  0.80458257  0.96452748  0.31523446     1.27400
Ni805      Ni  0.81024722  0.99016783  0.23822523     1.26100
H806        H  0.79817190  0.01813824  0.24573216     0.38800
O807        O  0.81922617  0.05192215  0.76539549    -0.81100
O808        O  0.81227388  0.96238139  0.73238657    -0.65800
O809        O  0.80666343  0.01751867  0.74924695    -1.12400
C810        C  0.80933364  0.99978199  0.87856499     1.05800
O811        O  0.80009734  0.95263223  0.77626260    -0.79000
O812        O  0.78844504  0.98216728  0.81254852    -0.66600
Ni813      Ni  0.81461081  0.03737063  0.72099079     1.34900
C814        C  0.78583314  0.00045360  0.81417798     0.84500
O815        O  0.80792205  0.99241860  0.68570969    -0.79600
O816        O  0.81058524  0.02490249  0.67387688    -0.89800
C817        C  0.80631347  0.94894176  0.74761962     0.84100
O818        O  0.82904104  0.02495692  0.72008155    -0.68000
O819        O  0.80479710  0.98363606  0.86729166    -0.87300
C820        C  0.83234861  0.00724402  0.72538878     0.84900
C821        C  0.80867532  0.00713339  0.66310312     1.06500
H822        H  0.81939215  0.98560736  0.79897906     0.38300
O823        O  0.81164208  0.98856373  0.79316295    -1.10000
O824        O  0.79318803  0.01409865  0.81172111    -0.66600
Ni825      Ni  0.80918889  0.01615567  0.80277139     1.26300
O826        O  0.82577175  0.99306593  0.73403159    -0.66900
O827        O  0.81218635  0.01365143  0.85593452    -0.79200
C828        C  0.81271038  0.05700183  0.79214639     0.84300
O829        O  0.80693898  0.04413686  0.80969937    -0.66300
Ni830      Ni  0.80269034  0.96959923  0.82001583     1.27400
Ni831      Ni  0.80973903  0.99013014  0.73949434     1.26100
H832        H  0.79876112  0.01970892  0.74458822     0.38800
O833        O  0.19311047  0.05732642  0.22097248    -0.81100
O834        O  0.19413545  0.96635600  0.19273568    -0.65800
O835        O  0.18344308  0.01925336  0.20865634    -1.12400
C836        C  0.18719319  0.00404727  0.33765712     1.05800
O837        O  0.18312704  0.95425581  0.23803796    -0.79000
O838        O  0.16906807  0.98041962  0.26949626    -0.66600
Ni839      Ni  0.18866350  0.04088340  0.17817348     1.34900
C840        C  0.16485367  0.99751587  0.27435109     0.84500
O841        O  0.18607245  0.99411443  0.14558873    -0.79600
O842        O  0.18473012  0.02669988  0.13240242    -0.89800
C843        C  0.18953864  0.95184245  0.20970542     0.84100
O844        O  0.20392331  0.03290826  0.17137113    -0.68000
O845        O  0.18419812  0.98687590  0.32662422    -0.87300
C846        C  0.20908583  0.01660719  0.17620256     0.84900
C847        C  0.18467785  0.00843017  0.12235553     1.06500
H848        H  0.19936794  0.99170792  0.25795885     0.38300
O849        O  0.19138819  0.99259981  0.25271430    -1.10000
O850        O  0.17079263  0.01331306  0.27339680    -0.66600
Ni851      Ni  0.18653939  0.01920131  0.26194434     1.26300
O852        O  0.20445169  0.00106661  0.18994726    -0.66900
O853        O  0.18982436  0.01805117  0.31504983    -0.79200
C854        C  0.18825633  0.06004333  0.25282455     0.84300
O855        O  0.18261699  0.04636480  0.26852578    -0.66300
Ni856      Ni  0.18398149  0.97197497  0.28032701     1.27400
Ni857      Ni  0.18897335  0.99311388  0.19909309     1.26100
H858        H  0.17537348  0.01880756  0.20512252     0.38800
O859        O  0.19601131  0.05425048  0.73412251    -0.81100
O860        O  0.19177105  0.96704850  0.68349600    -0.65800
O861        O  0.18429038  0.02070011  0.70862652    -1.12400
C862        C  0.18570112  0.99667046  0.83617999     1.05800
O863        O  0.17892937  0.95684291  0.72373203    -0.79000
O864        O  0.16725234  0.97992758  0.77246744    -0.66600
Ni865      Ni  0.19170983  0.04264408  0.68593319     1.34900
C866        C  0.16336449  0.99746214  0.77040834     0.84500
O867        O  0.18625556  0.99948793  0.64085132    -0.79600
O868        O  0.18756925  0.03294012  0.63656093    -0.89800
C869        C  0.18660551  0.95295777  0.69989362     0.84100
O870        O  0.20643882  0.03144669  0.67901685    -0.68000
O871        O  0.18463702  0.97938226  0.82179443    -0.87300
C872        C  0.21010738  0.01368761  0.67869703     0.84900
C873        C  0.18627584  0.01573660  0.62179158     1.06500
H874        H  0.19762845  0.98913349  0.75439113     0.38300
O875        O  0.18973818  0.99074819  0.74850729    -1.10000
O876        O  0.16956301  0.01259132  0.76482394    -0.66600
Ni877      Ni  0.18558372  0.01715905  0.76233394     1.26300
O878        O  0.20413036  0.99883572  0.68837300    -0.66900
O879        O  0.18660985  0.01253208  0.81636885    -0.79200
C880        C  0.18905077  0.05795944  0.76074029     0.84300
O881        O  0.18243558  0.04453373  0.77274631    -0.66300
Ni882      Ni  0.18204887  0.96900969  0.77180907     1.27400
Ni883      Ni  0.18817395  0.99435263  0.69437326     1.26100
H884        H  0.17642463  0.02240113  0.70244171     0.38800
O885        O  0.05458822  0.05567316  0.39606206    -0.81100
O886        O  0.05514729  0.96438290  0.43186767    -0.65800
O887        O  0.06395327  0.01764951  0.41082916    -1.12400
C888        C  0.05839752  0.00042871  0.28205394     1.05800
O889        O  0.06426583  0.95160155  0.38251019    -0.79000
O890        O  0.07749793  0.97679382  0.34473440    -0.66600
Ni891      Ni  0.05794898  0.03927436  0.43974381     1.34900
C892        C  0.08188115  0.99391072  0.34237565     0.84500
O893        O  0.06337365  0.99316763  0.47514703    -0.79600
O894        O  0.06086383  0.02564979  0.48674499    -0.89800
C895        C  0.05956369  0.94986113  0.41459774     0.84100
O896        O  0.04264772  0.03074839  0.44209234    -0.68000
O897        O  0.06076938  0.98290626  0.29280827    -0.87300
C898        C  0.03852237  0.01344754  0.44570244     0.84900
C899        C  0.06268509  0.00788980  0.49777295     1.06500
H900        H  0.04761524  0.98942955  0.36640488     0.38300
O901        O  0.05570103  0.99004210  0.36939965    -1.10000
O902        O  0.07613700  0.00983584  0.34612412    -0.66600
Ni903      Ni  0.06054380  0.01646447  0.35783384     1.26300
O904        O  0.04393128  0.99769790  0.43689594    -0.66900
O905        O  0.05687211  0.01475413  0.30502045    -0.79200
C906        C  0.06011072  0.05780361  0.36540613     0.84300
O907        O  0.06487032  0.04328245  0.34915874    -0.66300
Ni908      Ni  0.06219398  0.96883271  0.33998206     1.27400
Ni909      Ni  0.05932842  0.99125873  0.42260442     1.26100
H910        H  0.07199098  0.01815876  0.41399075     0.38800
O911        O  0.05017907  0.05499991  0.88439864    -0.81100
O912        O  0.05357034  0.96767519  0.93491774    -0.65800
O913        O  0.06124271  0.02109265  0.91025981    -1.12400
C914        C  0.05951878  0.99678124  0.78304293     1.05800
O915        O  0.06667931  0.95755631  0.89549659    -0.79000
O916        O  0.07813646  0.98000550  0.84567565    -0.66600
Ni917      Ni  0.05367535  0.04303147  0.93282873     1.34900
C918        C  0.08195737  0.99756542  0.84733064     0.84500
O919        O  0.05876556  0.99972840  0.97785025    -0.79600
O920        O  0.05708813  0.03304404  0.98257147    -0.89800
C921        C  0.05914465  0.95372322  0.91980462     0.84100
O922        O  0.03878841  0.03202933  0.93717139    -0.68000
O923        O  0.06046174  0.97947528  0.79747666    -0.87300
C924        C  0.03517768  0.01422851  0.93694153     0.84900
C925        C  0.05834915  0.01582094  0.99722228     1.06500
H926        H  0.04786032  0.98972334  0.86405026     0.38300
O927        O  0.05573030  0.99122943  0.87020166    -1.10000
O928        O  0.07585440  0.01270216  0.85355785    -0.66600
Ni929      Ni  0.05995233  0.01750125  0.85648877     1.26300
O930        O  0.04132794  0.99947253  0.92833930    -0.66900
O931        O  0.05882031  0.01275412  0.80262449    -0.79200
C932        C  0.05768268  0.05859570  0.85950515     0.84300
O933        O  0.06360380  0.04455864  0.84620800    -0.66300
Ni934      Ni  0.06331176  0.96932017  0.84736856     1.27400
Ni935      Ni  0.05720719  0.99481620  0.92415166     1.26100
H936        H  0.06910112  0.02270933  0.91659193     0.38800
O937        O  0.05500142  0.20017758  0.22913408    -0.81100
O938        O  0.05718336  0.29086623  0.19756918    -0.65800
O939        O  0.06569715  0.23660943  0.21324784    -1.12400
C940        C  0.06099616  0.25434697  0.34340106     1.05800
O941        O  0.07022913  0.29894846  0.23875502    -0.79000
O942        O  0.08150658  0.27425214  0.28525714    -0.66600
Ni943      Ni  0.05920762  0.21546202  0.18489011     1.34900
C944        C  0.08536020  0.25675122  0.28280920     0.84500
O945        O  0.06330253  0.26149917  0.14923319    -0.79600
O946        O  0.06306950  0.22850302  0.13821490    -0.89800
C947        C  0.06286345  0.30412692  0.21463416     0.84100
O948        O  0.04413473  0.22540003  0.18017094    -0.68000
O949        O  0.06349985  0.27180278  0.33202332    -0.87300
C950        C  0.03978575  0.24262675  0.18270729     0.84900
C951        C  0.06345003  0.24651207  0.12692626     1.06500
H952        H  0.05115182  0.26546424  0.26258572     0.38300
O953        O  0.05907877  0.26412644  0.25720505    -1.10000
O954        O  0.07915327  0.24183122  0.27554273    -0.66600
Ni955      Ni  0.06323039  0.23737045  0.26705672     1.26300
O956        O  0.04524835  0.25770632  0.19480354    -0.66900
O957        O  0.06033706  0.23952705  0.32078628    -0.79200
C958        C  0.06127393  0.19636743  0.25748231     0.84300
O959        O  0.06682575  0.20993707  0.27386626    -0.66300
Ni960      Ni  0.06661473  0.28465178  0.28445879     1.27400
Ni961      Ni  0.06111582  0.26332296  0.20326632     1.26100
H962        H  0.07368992  0.23594267  0.20862473     0.38800
O963        O  0.05225738  0.20367339  0.74121225    -0.81100
O964        O  0.05695941  0.29068127  0.69017915    -0.65800
O965        O  0.06426842  0.23736732  0.71721099    -1.12400
C966        C  0.06079881  0.26206797  0.84291154     1.05800
O967        O  0.06948739  0.30205975  0.73084165    -0.79000
O968        O  0.08087808  0.27827876  0.77870491    -0.66600
Ni969      Ni  0.05673990  0.21549565  0.69360318     1.34900
C970        C  0.08437872  0.26057018  0.78215884     0.84500
O971        O  0.06229967  0.25846975  0.64874908    -0.79600
O972        O  0.06066739  0.22517220  0.64403792    -0.89800
C973        C  0.06233175  0.30501275  0.70472440     0.84100
O974        O  0.04205566  0.22677372  0.68707235    -0.68000
O975        O  0.06342952  0.27893915  0.82885318    -0.87300
C976        C  0.03846406  0.24456303  0.68697585     0.84900
C977        C  0.06175312  0.24242495  0.62941579     1.06500
H978        H  0.05056128  0.26996501  0.76049837     0.38300
O979        O  0.05844918  0.26785284  0.75544874    -1.10000
O980        O  0.07795650  0.24548015  0.77886765    -0.66600
Ni981      Ni  0.06192583  0.24142363  0.77046130     1.26300
O982        O  0.04454082  0.25924652  0.69651630    -0.66900
O983        O  0.05920387  0.24648126  0.82305836    -0.79200
C984        C  0.05887114  0.20037845  0.76887842     0.84300
O985        O  0.06479054  0.21427145  0.78262603    -0.66300
Ni986      Ni  0.06618486  0.28947060  0.77871419     1.27400
Ni987      Ni  0.06043624  0.26367740  0.70208043     1.26100
H988        H  0.07223281  0.23556771  0.71262724     0.38800
O989        O  0.20020797  0.20161236  0.39718260    -0.81100
O990        O  0.19523253  0.28956143  0.43943460    -0.65800
O991        O  0.18812300  0.23557825  0.41800668    -1.12400
C992        C  0.19065256  0.25742732  0.28972665     1.05800
O993        O  0.18197552  0.29864035  0.39927822    -0.79000
O994        O  0.17116613  0.27423668  0.35074367    -0.66600
Ni995      Ni  0.19510723  0.21415021  0.44367797     1.34900
C996        C  0.16762698  0.25647020  0.35236641     0.84500
O997        O  0.19027233  0.25830114  0.48437404    -0.79600
O998        O  0.19026809  0.22496501  0.49149864    -0.89800
C999        C  0.18910405  0.30296351  0.42476859     0.84100
O1000       O  0.20966762  0.22553280  0.45215276    -0.68000
O1001       O  0.18910313  0.27483981  0.30312892    -0.87300
C1002       C  0.21375513  0.24288796  0.44870376     0.84900
C1003       C  0.18971929  0.24261728  0.50482046     1.06500
H1004       H  0.20153679  0.26669235  0.37086445     0.38300
O1005       O  0.19366329  0.26478954  0.37661216    -1.10000
O1006       O  0.17402523  0.24167180  0.35860687    -0.66600
Ni1007     Ni  0.19004148  0.23802174  0.36429370     1.26300
O1008       O  0.20801789  0.25746945  0.43601705    -0.66900
O1009       O  0.19173872  0.24186345  0.31032905    -0.79200
C1010       C  0.19372725  0.19719969  0.36961004     0.84300
O1011       O  0.18730318  0.21038355  0.35553927    -0.66300
Ni1012     Ni  0.18580111  0.28584058  0.35215883     1.27400
Ni1013     Ni  0.19201977  0.26211311  0.43049815     1.26100
H1014       H  0.18017565  0.23422459  0.42325865     0.38800
O1015       O  0.19635593  0.20007333  0.89655172    -0.81100
O1016       O  0.19501016  0.28991695  0.93922214    -0.65800
O1017       O  0.18602861  0.23676783  0.91589669    -1.12400
C1018       C  0.19038103  0.25695237  0.78890533     1.05800
O1019       O  0.18424141  0.30291917  0.89426987    -0.79000
O1020       O  0.17122898  0.27773986  0.85528755    -0.66600
Ni1021     Ni  0.19262014  0.21473053  0.94220681     1.34900
C1022       C  0.16726103  0.26047373  0.85022739     0.84500
O1023       O  0.18754146  0.25977888  0.98229738    -0.79600
O1024       O  0.18952233  0.22682622  0.99079253    -0.89800
C1025       C  0.19062633  0.30478304  0.92280899     0.84100
O1026       O  0.20774775  0.22398470  0.94509272    -0.68000
O1027       O  0.18763483  0.27406851  0.80115465    -0.87300
C1028       C  0.21179309  0.24136960  0.94746941     0.84900
C1029       C  0.18806414  0.24441587  0.00353249     1.06500
H1030       H  0.20148293  0.26678438  0.87160468     0.38300
O1031       O  0.19348599  0.26554727  0.87579075    -1.10000
O1032       O  0.17337859  0.24492198  0.85185037    -0.66600
Ni1033     Ni  0.18908331  0.23908324  0.86275315     1.26300
O1034       O  0.20618892  0.25693087  0.93944492    -0.66900
O1035       O  0.19244983  0.24219243  0.81027836    -0.79200
C1036       C  0.19038309  0.19766981  0.86695737     0.84300
O1037       O  0.18517079  0.21212872  0.85212338    -0.66300
Ni1038     Ni  0.18625136  0.28703444  0.84956553     1.27400
Ni1039     Ni  0.19062311  0.26309218  0.92913003     1.26100
H1040       H  0.17802450  0.23593992  0.91967887     0.38800
O1041       O  0.05308402  0.70325536  0.49424215    -0.81100
O1042       O  0.05765457  0.79154930  0.45043040    -0.65800
O1043       O  0.06463772  0.73724349  0.46990478    -1.12400
C1044       C  0.06581786  0.76017532  0.59815261     1.05800
O1045       O  0.07259095  0.79871874  0.48423738    -0.79000
O1046       O  0.08443849  0.77471046  0.53033531    -0.66600
Ni1047     Ni  0.05667214  0.71606004  0.44646876     1.34900
C1048       C  0.08738812  0.75662578  0.52894379     0.84500
O1049       O  0.06092775  0.76016386  0.40437221    -0.79600
O1050       O  0.05971274  0.72693042  0.39688800    -0.89800
C1051       C  0.06439856  0.80430699  0.46388076     0.84100
O1052       O  0.04206029  0.72779786  0.44369326    -0.68000
O1053       O  0.06798369  0.77716623  0.58373140    -0.87300
C1054       C  0.03837147  0.74545512  0.44665947     0.84900
C1055       C  0.06032467  0.74461252  0.38373787     1.06500
H1056       H  0.05319958  0.76956642  0.52092520     0.38300
O1057       O  0.06081076  0.76694658  0.51248475    -1.10000
O1058       O  0.08039871  0.74249361  0.52509944    -0.66600
Ni1059     Ni  0.06420738  0.74016180  0.52416725     1.26300
O1060       O  0.04455781  0.75987693  0.45763839    -0.66900
O1061       O  0.06385743  0.74456070  0.57838321    -0.79200
C1062       C  0.06003758  0.69949120  0.52085756     0.84300
O1063       O  0.06669476  0.71267548  0.53320653    -0.66300
Ni1064     Ni  0.07007655  0.78731165  0.53325357     1.27400
Ni1065     Ni  0.06075070  0.76396276  0.45835262     1.26100
H1066       H  0.07236048  0.73553310  0.46230479     0.38800
O1067       O  0.05117647  0.70381936  0.98479257    -0.81100
O1068       O  0.05567360  0.79417983  0.95283656    -0.65800
O1069       O  0.06264805  0.73980386  0.97086989    -1.12400
C1070       C  0.05707609  0.75808657  0.09977569     1.05800
O1071       O  0.06736927  0.80355101  0.99789985    -0.79000
O1072       O  0.07778491  0.77755847  0.04466733    -0.66600
Ni1073     Ni  0.05567635  0.71947859  0.94118469     1.34900
C1074       C  0.08150797  0.75988499  0.04352811     0.84500
O1075       O  0.06283759  0.76497103  0.90751012    -0.79600
O1076       O  0.05981462  0.73287613  0.89455291    -0.89800
C1077       C  0.06094343  0.80769887  0.97024641     0.84100
O1078       O  0.04079929  0.73012216  0.93816845    -0.68000
O1079       O  0.05919710  0.77578946  0.08906886    -0.87300
C1080       C  0.03713937  0.74780255  0.93975894     0.84900
C1081       C  0.06265034  0.75043166  0.88440017     1.06500
H1082       H  0.04786524  0.76961197  0.01702066     0.38300
O1083       O  0.05588191  0.76801377  0.01347453    -1.10000
O1084       O  0.07536528  0.74502472  0.03496742    -0.66600
Ni1085     Ni  0.05951648  0.74100397  0.02410353     1.26300
O1086       O  0.04330283  0.76249781  0.94902969    -0.66900
O1087       O  0.05634581  0.74329056  0.07727381    -0.79200
C1088       C  0.05674956  0.70002135  0.01482791     0.84300
O1089       O  0.06241170  0.71337865  0.03158215    -0.66300
Ni1090     Ni  0.06301376  0.78858000  0.04214397     1.27400
Ni1091     Ni  0.05906056  0.76681882  0.96033982     1.26100
H1092       H  0.07067964  0.73825509  0.96730757     0.38800
O1093       O  0.19764577  0.70473284  0.13109005    -0.81100
O1094       O  0.19461679  0.79144552  0.18374354    -0.65800
O1095       O  0.18628080  0.73841092  0.15726480    -1.12400
C1096       C  0.18786999  0.76429739  0.03131804     1.05800
O1097       O  0.18085429  0.80151915  0.14703767    -0.79000
O1098       O  0.16876837  0.77953486  0.09922092    -0.66600
Ni1099     Ni  0.19351072  0.71603427  0.17953620     1.34900
C1100       C  0.16504195  0.76194274  0.09722422     0.84500
O1101       O  0.18966790  0.75885684  0.22582476    -0.79600
O1102       O  0.18968401  0.72540643  0.22945326    -0.89800
C1103       C  0.18886899  0.80546755  0.16945154     0.84100
O1104       O  0.20839535  0.72653926  0.18671155    -0.68000
O1105       O  0.18573780  0.78112095  0.04654354    -0.87300
C1106       C  0.21245607  0.74401370  0.18591833     0.84900
C1107       C  0.18946779  0.74261560  0.24475155     1.06500
H1108       H  0.19944426  0.77069741  0.11160108     0.38300
O1109       O  0.19164917  0.76872797  0.11838300    -1.10000
O1110       O  0.17147426  0.74679860  0.09915793    -0.66600
Ni1111     Ni  0.18760995  0.74253791  0.10345411     1.26300
O1112       O  0.20673659  0.75908511  0.17535573    -0.66900
O1113       O  0.18910562  0.74813824  0.05008017    -0.79200
C1114       C  0.19079069  0.70142696  0.10400643     0.84300
O1115       O  0.18453434  0.71529091  0.09151115    -0.66300
Ni1116     Ni  0.18349559  0.79057624  0.09767825     1.27400
Ni1117     Ni  0.19073563  0.76439452  0.17230043     1.26100
H1118       H  0.17840751  0.73714586  0.16343400     0.38800
O1119       O  0.20216910  0.70173613  0.64295985    -0.81100
O1120       O  0.19810494  0.79235565  0.67486237    -0.65800
O1121       O  0.19084047  0.73748340  0.66068904    -1.12400
C1122       C  0.19133027  0.75576685  0.53016675     1.05800
O1123       O  0.18426001  0.80089168  0.63648359    -0.79000
O1124       O  0.17225665  0.77360177  0.59657662    -0.66600
Ni1125     Ni  0.19837555  0.71695781  0.68802251     1.34900
C1126       C  0.16901120  0.75569515  0.60008586     0.84500
O1127       O  0.19397963  0.76263563  0.72380478    -0.79600
O1128       O  0.19495222  0.72985685  0.73560467    -0.89800
C1129       C  0.19177861  0.80559236  0.66056058     0.84100
O1130       O  0.21308502  0.72844669  0.68905836    -0.68000
O1131       O  0.18872695  0.77308126  0.54203186    -0.87300
C1132       C  0.21680787  0.74588325  0.68318578     0.84900
C1133       C  0.19410860  0.74789595  0.74662810     1.06500
H1134       H  0.20313881  0.76793755  0.60764588     0.38300
O1135       O  0.19542911  0.76578584  0.61524687    -1.10000
O1136       O  0.17590251  0.74135823  0.60334504    -0.66600
Ni1137     Ni  0.19203516  0.73848281  0.60640583     1.26300
O1138       O  0.21068803  0.76021016  0.67182131    -0.66900
O1139       O  0.19318296  0.74093043  0.55202663    -0.79200
C1140       C  0.19557362  0.69733546  0.61567612     0.84300
O1141       O  0.18943415  0.71054398  0.60028606    -0.66300
Ni1142     Ni  0.18669324  0.78576883  0.59052448     1.27400
Ni1143     Ni  0.19473190  0.76461667  0.66941158     1.26100
H1144       H  0.18299042  0.73615256  0.66739299     0.38800
O1145       O  0.05449167  0.55660249  0.15130814    -0.81100
O1146       O  0.05849692  0.46487961  0.17874524    -0.65800
O1147       O  0.06570171  0.51949811  0.16061216    -1.12400
C1148       C  0.05772072  0.50368670  0.03287375     1.05800
O1149       O  0.06808427  0.45437643  0.12871624    -0.79000
O1150       O  0.07940954  0.48204025  0.08878072    -0.66600
Ni1151     Ni  0.05967592  0.53998179  0.19256076     1.34900
C1152       C  0.08289945  0.49979933  0.08643528     0.84500
O1153       O  0.06638988  0.49370005  0.22383885    -0.79600
O1154       O  0.06426637  0.52607193  0.23771291    -0.89800
C1155       C  0.06276597  0.45093993  0.15924544     0.84100
O1156       O  0.04483391  0.52966361  0.19807044    -0.68000
O1157       O  0.06140025  0.48658728  0.04197719    -0.87300
C1158       C  0.04097476  0.51209253  0.19723752     0.84900
C1159       C  0.06624056  0.50813548  0.24733371     1.06500
H1160       H  0.04971367  0.49008111  0.11701611     0.38300
O1161       O  0.05777761  0.49177562  0.11889711    -1.10000
O1162       O  0.07659774  0.51485603  0.09225626    -0.66600
Ni1163     Ni  0.06111343  0.51899291  0.10848529     1.26300
O1164       O  0.04666863  0.49719000  0.18606387    -0.66900
O1165       O  0.05615407  0.51756748  0.05683028    -0.79200
C1166       C  0.05899972  0.56013091  0.11930809     0.84300
O1167       O  0.06398916  0.54661036  0.10076237    -0.66300
Ni1168     Ni  0.06449882  0.47187739  0.08737061     1.27400
Ni1169     Ni  0.06203575  0.49236005  0.17129865     1.26100
H1170       H  0.07381248  0.52071991  0.16181534     0.38800
O1171       O  0.04916175  0.55389988  0.63791391    -0.81100
O1172       O  0.05316538  0.46549713  0.68186070    -0.65800
O1173       O  0.06039617  0.51981154  0.66245134    -1.12400
C1174       C  0.06176698  0.49791850  0.53347911     1.05800
O1175       O  0.06745794  0.45669508  0.64581419    -0.79000
O1176       O  0.07964833  0.48160238  0.60158813    -0.66600
Ni1177     Ni  0.05239548  0.54107732  0.68569519     1.34900
C1178       C  0.08291392  0.49953339  0.60358357     0.84500
O1179       O  0.05692249  0.49701783  0.72820476    -0.79600
O1180       O  0.05538370  0.53030023  0.73498685    -0.89800
C1181       C  0.05953411  0.45212568  0.66829779     0.84100
O1182       O  0.03767771  0.52941269  0.68788925    -0.68000
O1183       O  0.06330601  0.48065647  0.54764303    -0.87300
C1184       C  0.03398850  0.51174334  0.68474212     0.84900
C1185       C  0.05635481  0.51278655  0.74847287     1.06500
H1186       H  0.04861065  0.48822644  0.61133582     0.38300
O1187       O  0.05626503  0.49037765  0.61949062    -1.10000
O1188       O  0.07616902  0.51404697  0.60747853    -0.66600
Ni1189     Ni  0.06003945  0.51724076  0.60812583     1.26300
O1190       O  0.04030186  0.49727985  0.67496229    -0.66900
O1191       O  0.05984052  0.51341577  0.55361208    -0.79200
C1192       C  0.05674785  0.55820466  0.61374751     0.84300
O1193       O  0.06305837  0.54475925  0.60021773    -0.66300
Ni1194     Ni  0.06510453  0.46962827  0.59767042     1.27400
Ni1195     Ni  0.05644992  0.49310939  0.67386772     1.26100
H1196       H  0.06812828  0.52146744  0.67021673     0.38800
O1197       O  0.19663718  0.55286388  0.48544700    -0.81100
O1198       O  0.19200885  0.46381824  0.44365955    -0.65800
O1199       O  0.18485195  0.51805681  0.46563362    -1.12400
C1200       C  0.18762227  0.49632062  0.59389511     1.05800
O1201       O  0.17939942  0.45477983  0.48551799    -0.79000
O1202       O  0.16836370  0.47916666  0.53352614    -0.66600
Ni1203     Ni  0.19193347  0.53936522  0.43959547     1.34900
C1204       C  0.16477302  0.49694403  0.53223568     0.84500
O1205       O  0.18552803  0.49488522  0.39967657    -0.79600
O1206       O  0.18772355  0.52786348  0.39154086    -0.89800
C1207       C  0.18684729  0.45022647  0.46142027     0.84100
O1208       O  0.20657712  0.52831180  0.43423766    -0.68000
O1209       O  0.18634579  0.47888112  0.58061605    -0.87300
C1210       C  0.21015938  0.51057332  0.43319287     0.84900
C1211       C  0.18569877  0.51042619  0.37879893     1.06500
H1212       H  0.19878590  0.48702506  0.51140599     0.38300
O1213       O  0.19083525  0.48882276  0.50665706    -1.10000
O1214       O  0.17109807  0.51172986  0.52536458    -0.66600
Ni1215     Ni  0.18704952  0.51559397  0.51926185     1.26300
O1216       O  0.20424683  0.49569800  0.44311366    -0.66900
O1217       O  0.18874602  0.51182058  0.57319791    -0.79200
C1218       C  0.19061402  0.55647723  0.51451698     0.84300
O1219       O  0.18425924  0.54321475  0.52860670    -0.66300
Ni1220     Ni  0.18311332  0.46775610  0.53203827     1.27400
Ni1221     Ni  0.18846678  0.49128235  0.45287123     1.26100
H1222       H  0.17692074  0.51968274  0.46080971     0.38800
O1223       O  0.19438441  0.55622759  0.97389130    -0.81100
O1224       O  0.19451124  0.46507770  0.94941566    -0.65800
O1225       O  0.18436136  0.51855465  0.96372268    -1.12400
C1226       C  0.18623526  0.50540729  0.09296551     1.05800
O1227       O  0.18426952  0.45322127  0.99704521    -0.79000
O1228       O  0.16978219  0.48169567  0.01571546    -0.66600
Ni1229     Ni  0.18947801  0.53970658  0.93231839     1.34900
C1230       C  0.16547599  0.49850057  0.02232957     0.84500
O1231       O  0.18649016  0.49269276  0.90161827    -0.79600
O1232       O  0.18503407  0.52528096  0.88782413    -0.89800
C1233       C  0.19064850  0.45066804  0.96872877     0.84100
O1234       O  0.20453793  0.53101366  0.92479715    -0.68000
O1235       O  0.18225076  0.48900909  0.08109643    -0.87300
C1236       C  0.20957130  0.51453748  0.92893644     0.84900
C1237       C  0.18502149  0.50697557  0.87832704     1.06500
H1238       H  0.19998774  0.49071452  0.01448680     0.38300
O1239       O  0.19208278  0.49216030  0.00888616    -1.10000
O1240       O  0.17159576  0.51384641  0.02732850    -0.66600
Ni1241     Ni  0.18745760  0.51916912  0.01700046     1.26300
O1242       O  0.20497515  0.49938005  0.94426188    -0.66900
O1243       O  0.19047324  0.51827525  0.07061390    -0.79200
C1244       C  0.18898090  0.56023412  0.00406271     0.84300
O1245       O  0.18372975  0.54677338  0.02211689    -0.66300
Ni1246     Ni  0.18364602  0.47272712  0.03634019     1.27400
Ni1247     Ni  0.18953621  0.49209786  0.95503196     1.26100
H1248       H  0.17632293  0.51825640  0.96015529     0.38800
O1249       O  0.43062704  0.55270157  0.09250244    -0.81100
O1250       O  0.43235743  0.46512423  0.14441681    -0.65800
O1251       O  0.44098144  0.51812682  0.11917705    -1.12400
C1252       C  0.43832567  0.49327919  0.99257495     1.05800
O1253       O  0.44553175  0.45395630  0.10629038    -0.79000
O1254       O  0.45697901  0.47534072  0.05320839    -0.66600
Ni1255     Ni  0.43345068  0.54043355  0.14117738     1.34900
C1256       C  0.46113796  0.49265961  0.05159510     0.84500
O1257       O  0.43762034  0.49696031  0.18705383    -0.79600
O1258       O  0.43586645  0.53019705  0.19162417    -0.89800
C1259       C  0.43852125  0.45095954  0.13296339     0.84100
O1260       O  0.41837032  0.53039814  0.14226375    -0.68000
O1261       O  0.43896712  0.47595671  0.00746635    -0.87300
C1262       C  0.41436497  0.51290181  0.14229424     0.84900
C1263       C  0.43686974  0.51295721  0.20648256     1.06500
H1264       H  0.42705302  0.48740827  0.07334688     0.38300
O1265       O  0.43494753  0.48842570  0.07966503    -1.10000
O1266       O  0.45557820  0.50829181  0.06006502    -0.66600
Ni1267     Ni  0.43966569  0.51434172  0.06530615     1.26300
O1268       O  0.42039232  0.49753684  0.13691471    -0.66900
O1269       O  0.43804491  0.50938810  0.01183892    -0.79200
C1270       C  0.43821645  0.55571680  0.06774953     0.84300
O1271       O  0.44382348  0.54127496  0.05432585    -0.66300
Ni1272     Ni  0.44195160  0.46582395  0.05768622     1.27400
Ni1273     Ni  0.43629386  0.49208806  0.13335521     1.26100
H1274       H  0.44883585  0.51937069  0.12550202     0.38800
O1275       O  0.43107205  0.55382388  0.60719001    -0.81100
O1276       O  0.43201612  0.46293512  0.63963079    -0.65800
O1277       O  0.44100290  0.51650906  0.62110328    -1.12400
C1278       C  0.43443404  0.50047486  0.49215314     1.05800
O1279       O  0.44192380  0.45081547  0.59151463    -0.79000
O1280       O  0.45411813  0.47658507  0.54911800    -0.66600
Ni1281     Ni  0.43498175  0.53788592  0.65069824     1.34900
C1282       C  0.45829887  0.49390397  0.54782211     0.84500
O1283       O  0.43962996  0.49158185  0.68508480    -0.79600
O1284       O  0.43856515  0.52436421  0.69700778    -0.89800
C1285       C  0.43670321  0.44852195  0.62271759     0.84100
O1286       O  0.41975979  0.52881636  0.65419350    -0.68000
O1287       O  0.43627263  0.48256518  0.50231324    -0.87300
C1288       C  0.41537301  0.51164875  0.65190853     0.84900
C1289       C  0.43966475  0.50638557  0.70775350     1.06500
H1290       H  0.42477498  0.48887265  0.57536055     0.38300
O1291       O  0.43283111  0.48938926  0.57857079    -1.10000
O1292       O  0.45276393  0.50959775  0.55532869    -0.66600
Ni1293     Ni  0.43746266  0.51609057  0.56814911     1.26300
O1294       O  0.42087536  0.49627083  0.64235462    -0.66900
O1295       O  0.43371284  0.51494193  0.51535003    -0.79200
C1296       C  0.43756507  0.55728222  0.57939466     0.84300
O1297       O  0.44199669  0.54314663  0.56094808    -0.66300
Ni1298     Ni  0.43885409  0.46811253  0.54877378     1.27400
Ni1299     Ni  0.43629621  0.48998239  0.63170819     1.26100
H1300       H  0.44907587  0.51697523  0.62409422     0.38800
O1301       O  0.31936846  0.54991272  0.27982984    -0.81100
O1302       O  0.31519321  0.46368188  0.23129131    -0.65800
O1303       O  0.30784531  0.51713211  0.25574347    -1.12400
C1304       C  0.30998275  0.49316164  0.38297975     1.05800
O1305       O  0.30213885  0.45299482  0.27104500    -0.79000
O1306       O  0.29115630  0.47660354  0.32170543    -0.66600
Ni1307     Ni  0.31511990  0.53890833  0.23205955     1.34900
C1308       C  0.28742095  0.49427285  0.32103939     0.84500
O1309       O  0.31049778  0.49562222  0.18829681    -0.79600
O1310       O  0.31128411  0.52903939  0.18290630    -0.89800
C1311       C  0.30881668  0.45000035  0.24341550     0.84100
O1312       O  0.32976839  0.52790155  0.22690868    -0.68000
O1313       O  0.30895878  0.47586004  0.36851895    -0.87300
C1314       C  0.33373235  0.51046655  0.22943548     0.84900
C1315       C  0.31060424  0.51165173  0.16871427     1.06500
H1316       H  0.32125643  0.48569182  0.30185937     0.38300
O1317       O  0.31338262  0.48735816  0.29586576    -1.10000
O1318       O  0.29351590  0.50929496  0.31374805    -0.66600
Ni1319     Ni  0.30941244  0.51387822  0.30964110     1.26300
O1320       O  0.32783505  0.49539040  0.23807603    -0.66900
O1321       O  0.31075326  0.50916893  0.36346096    -0.79200
C1322       C  0.31190229  0.55487325  0.30358327     0.84300
O1323       O  0.30608366  0.54147158  0.31973060    -0.66300
Ni1324     Ni  0.30586497  0.46549697  0.31882448     1.27400
Ni1325     Ni  0.31189501  0.49084543  0.24206540     1.26100
H1326       H  0.29995711  0.51862451  0.24990107     0.38800
O1327       O  0.31928305  0.55237390  0.76702353    -0.81100
O1328       O  0.31506465  0.46133331  0.74005958    -0.65800
O1329       O  0.30822352  0.51602488  0.75339173    -1.12400
C1330       C  0.31075996  0.50107678  0.88410626     1.05800
O1331       O  0.30369488  0.45091097  0.78584241    -0.79000
O1332       O  0.29119791  0.47961882  0.82028502    -0.66600
Ni1333     Ni  0.31631092  0.53540187  0.72429682     1.34900
C1334       C  0.28777143  0.49746414  0.81964287     0.84500
O1335       O  0.30876257  0.48974547  0.69210831    -0.79600
O1336       O  0.31399145  0.52077940  0.67810918    -0.89800
C1337       C  0.30975439  0.44767715  0.75678900     0.84100
O1338       O  0.33095781  0.52457311  0.72984211    -0.68000
O1339       O  0.30735848  0.48398146  0.87384741    -0.87300
C1340       C  0.33434362  0.50677684  0.73187119     0.84900
C1341       C  0.31044871  0.50366638  0.66833201     1.06500
H1342       H  0.32198587  0.48649543  0.80466373     0.38300
O1343       O  0.31411092  0.48838390  0.79927785    -1.10000
O1344       O  0.29454299  0.51192737  0.81530385    -0.66600
Ni1345     Ni  0.31050778  0.51581717  0.80704952     1.26300
O1346       O  0.32773473  0.49215875  0.73695274    -0.66900
O1347       O  0.31312463  0.51489114  0.86073046    -0.79200
C1348       C  0.31260406  0.55674301  0.79377042     0.84300
O1349       O  0.30723058  0.54349634  0.81171547    -0.66300
Ni1350     Ni  0.30586142  0.46893937  0.82791546     1.27400
Ni1351     Ni  0.31174954  0.48870974  0.74555643     1.26100
H1352       H  0.30032970  0.51789582  0.74803981     0.38800
O1353       O  0.43304775  0.21076032  0.26774964    -0.81100
O1354       O  0.43570108  0.30041893  0.23684409    -0.65800
O1355       O  0.44399462  0.24638351  0.25194984    -1.12400
C1356       C  0.44021941  0.26209991  0.38284249     1.05800
O1357       O  0.44683148  0.31146815  0.28258454    -0.79000
O1358       O  0.45913651  0.28505309  0.32406263    -0.66600
Ni1359     Ni  0.43683559  0.22584684  0.22322655     1.34900
C1360       C  0.46312780  0.26755777  0.32533866     0.84500
O1361       O  0.44151163  0.27177740  0.18866956    -0.79600
O1362       O  0.44011232  0.23909515  0.17624322    -0.89800
C1363       C  0.44091984  0.31445364  0.25302289     0.84100
O1364       O  0.42181294  0.23610184  0.22207526    -0.68000
O1365       O  0.44181629  0.27999259  0.37224784    -0.87300
C1366       C  0.41770740  0.25335111  0.22673665     0.84900
C1367       C  0.44105479  0.25714149  0.16560980     1.06500
H1368       H  0.42934431  0.27436359  0.30210301     0.38300
O1369       O  0.43731248  0.27352814  0.29698274    -1.10000
O1370       O  0.45743268  0.25210817  0.31656458    -0.66600
Ni1371     Ni  0.44167425  0.24653011  0.30596594     1.26300
O1372       O  0.42364572  0.26825704  0.23609474    -0.66900
O1373       O  0.43903093  0.24762627  0.35974822    -0.79200
C1374       C  0.44019213  0.20560635  0.29261018     0.84300
O1375       O  0.44554067  0.21880785  0.31106263    -0.66300
Ni1376     Ni  0.44402957  0.29438454  0.32574090     1.27400
Ni1377     Ni  0.43950878  0.27317316  0.24296656     1.26100
H1378       H  0.45198527  0.24544210  0.24700115     0.38800
O1379       O  0.42999753  0.20925012  0.77898872    -0.81100
O1380       O  0.43466659  0.29589562  0.72519843    -0.65800
O1381       O  0.44205416  0.24295505  0.75580420    -1.12400
C1382       C  0.43747971  0.26836214  0.88015663     1.05800
O1383       O  0.44609918  0.30912421  0.76771415    -0.79000
O1384       O  0.45772013  0.28476484  0.81671102    -0.66600
Ni1385     Ni  0.43506842  0.22061728  0.73179680     1.34900
C1386       C  0.46098389  0.26711710  0.82356160     0.84500
O1387       O  0.44082805  0.26328832  0.68605554    -0.79600
O1388       O  0.43957409  0.22992233  0.68256518    -0.89800
C1389       C  0.43972705  0.31088521  0.73879639     0.84100
O1390       O  0.42040497  0.23141326  0.72419633    -0.68000
O1391       O  0.44004793  0.28505990  0.86527821    -0.87300
C1392       C  0.41649852  0.24894975  0.72473147     0.84900
C1393       C  0.44093361  0.24697475  0.66740187     1.06500
H1394       H  0.42753630  0.27572966  0.79585910     0.38300
O1395       O  0.43550640  0.27367737  0.79193203    -1.10000
O1396       O  0.45465789  0.25196637  0.81971224    -0.66600
Ni1397     Ni  0.43892630  0.24730299  0.80855133     1.26300
O1398       O  0.42243664  0.26412639  0.73202054    -0.66900
O1399       O  0.43563005  0.25265587  0.86085479    -0.79200
C1400       C  0.43638155  0.20600985  0.80715227     0.84300
O1401       O  0.44191913  0.22013421  0.82193652    -0.66300
Ni1402     Ni  0.44285401  0.29569196  0.81528772     1.27400
Ni1403     Ni  0.43820144  0.26906235  0.73899912     1.26100
H1404       H  0.45009268  0.24134597  0.75260278     0.38800
O1405       O  0.32105203  0.20971252  0.11720332    -0.81100
O1406       O  0.31419028  0.29705340  0.16069130    -0.65800
O1407       O  0.30889712  0.24224988  0.14112440    -1.12400
C1408       C  0.31087726  0.26406543  0.01180544     1.05800
O1409       O  0.30082849  0.30453121  0.11957811    -0.79000
O1410       O  0.29133653  0.28020760  0.06672516    -0.66600
Ni1411     Ni  0.31756368  0.22196777  0.16483151     1.34900
C1412       C  0.28769414  0.26260794  0.07073964     0.84500
O1413       O  0.31089679  0.26549556  0.20705929    -0.79600
O1414       O  0.31455319  0.23276765  0.21410597    -0.89800
C1415       C  0.30756848  0.30965154  0.14578877     0.84100
O1416       O  0.33191651  0.23464603  0.16413112    -0.68000
O1417       O  0.31018928  0.28172998  0.02485439    -0.87300
C1418       C  0.33508702  0.25259577  0.16148501     0.84900
C1419       C  0.31254553  0.25001103  0.22755711     1.06500
H1420       H  0.32122314  0.27334027  0.09225238     0.38300
O1421       O  0.31337827  0.27154043  0.09844444    -1.10000
O1422       O  0.29377770  0.24841969  0.08318068    -0.66600
Ni1423     Ni  0.30988044  0.24470773  0.08685681     1.26300
O1424       O  0.32823861  0.26687282  0.15619130    -0.66900
O1425       O  0.31096797  0.24840490  0.03253109    -0.79200
C1426       C  0.31334898  0.20416513  0.09480127     0.84300
O1427       O  0.30698043  0.21694749  0.07924735    -0.66300
Ni1428     Ni  0.30572378  0.29238242  0.07302393     1.27400
Ni1429     Ni  0.31204089  0.26924998  0.15264396     1.26100
H1430       H  0.30115609  0.23979661  0.14791377     0.38800
O1431       O  0.31752273  0.20372403  0.63089687    -0.81100
O1432       O  0.31447437  0.29671201  0.66195429    -0.65800
O1433       O  0.30875204  0.24225547  0.63979650    -1.12400
C1434       C  0.31610890  0.26157621  0.51288262     1.05800
O1435       O  0.30483744  0.30841354  0.61281472    -0.79000
O1436       O  0.29413560  0.28055332  0.56997007    -0.66600
Ni1437     Ni  0.31668973  0.22314308  0.67053224     1.34900
C1438       C  0.29120879  0.26260125  0.56498199     0.84500
O1439       O  0.30702025  0.26676198  0.70370302    -0.79600
O1440       O  0.31645197  0.23902091  0.71605469    -0.89800
C1441       C  0.30976477  0.31085435  0.64446397     0.84100
O1442       O  0.33102587  0.23324748  0.65669104    -0.68000
O1443       O  0.31230090  0.27835892  0.52349899    -0.87300
C1444       C  0.33431012  0.25093788  0.66224309     0.84900
C1445       C  0.31090413  0.25411067  0.72691497     1.06500
H1446       H  0.32400076  0.27399999  0.59833412     0.38300
O1447       O  0.31601371  0.27165681  0.59999629    -1.10000
O1448       O  0.29781696  0.24793292  0.57086745    -0.66600
Ni1449     Ni  0.31335043  0.24446974  0.58747881     1.26300
O1450       O  0.32746825  0.26547949  0.66574586    -0.66900
O1451       O  0.31825800  0.24749561  0.53594759    -0.79200
C1452       C  0.31409300  0.20218896  0.59695712     0.84300
O1453       O  0.31104800  0.21693746  0.57701317    -0.66300
Ni1454     Ni  0.30884005  0.29186307  0.57010619     1.27400
Ni1455     Ni  0.31171275  0.26946255  0.65202133     1.26100
H1456       H  0.30078497  0.23974704  0.64148898     0.38800
O1457       O  0.43278137  0.70758406  0.00850563    -0.81100
O1458       O  0.43630981  0.79729716  0.97588393    -0.65800
O1459       O  0.44353024  0.74290315  0.99168110    -1.12400
C1460       C  0.43782706  0.76084502  0.12139986     1.05800
O1461       O  0.44847001  0.80581821  0.02038384    -0.79000
O1462       O  0.45804920  0.78067996  0.07115104    -0.66600
Ni1463     Ni  0.43645194  0.72234763  0.96360058     1.34900
C1464       C  0.46258691  0.76397007  0.06449555     0.84500
O1465       O  0.44246968  0.76809138  0.92866702    -0.79600
O1466       O  0.43975554  0.73553019  0.91651525    -0.89800
C1467       C  0.44227676  0.81028855  0.99228145     0.84100
O1468       O  0.42159099  0.73284096  0.96312106    -0.68000
O1469       O  0.43855870  0.77883327  0.11029161    -0.87300
C1470       C  0.41773334  0.75040093  0.96419073     0.84900
C1471       C  0.44181702  0.75332637  0.90603482     1.06500
H1472       H  0.42882655  0.77117065  0.03975014     0.38300
O1473       O  0.43681194  0.77040358  0.03555402    -1.10000
O1474       O  0.45703242  0.74925448  0.05199304    -0.66600
Ni1475     Ni  0.44124649  0.74371751  0.04552916     1.26300
O1476       O  0.42376828  0.76544711  0.97209319    -0.66900
O1477       O  0.43891905  0.74575426  0.09960178    -0.79200
C1478       C  0.43998909  0.70289723  0.03348348     0.84300
O1479       O  0.44517019  0.71627399  0.05184977    -0.66300
Ni1480     Ni  0.44332165  0.79137707  0.06435623     1.27400
Ni1481     Ni  0.43956819  0.76980116  0.98209969     1.26100
H1482       H  0.45146440  0.74161911  0.98665116     0.38800
O1483       O  0.43352154  0.70768661  0.50949397    -0.81100
O1484       O  0.43356622  0.79724517  0.47507668    -0.65800
O1485       O  0.44308070  0.74395352  0.49014290    -1.12400
C1486       C  0.44099535  0.76249408  0.62093357     1.05800
O1487       O  0.44673109  0.80757398  0.51466536    -0.79000
O1488       O  0.45871154  0.78334003  0.56250370    -0.66600
Ni1489     Ni  0.43626831  0.72242411  0.46383262     1.34900
C1490       C  0.46328478  0.76642621  0.55861500     0.84500
O1491       O  0.43865618  0.76825533  0.42687369    -0.79600
O1492       O  0.43844455  0.73532823  0.41594188    -0.89800
C1493       C  0.43977285  0.81094745  0.48792465     0.84100
O1494       O  0.42112779  0.73159254  0.46463603    -0.68000
O1495       O  0.44100874  0.78041925  0.60897182    -0.87300
C1496       C  0.41670096  0.74853956  0.46962926     0.84900
C1497       C  0.43827137  0.75332228  0.40461251     1.06500
H1498       H  0.42901820  0.77163807  0.54227124     0.38300
O1499       O  0.43687975  0.77126852  0.53525665    -1.10000
O1500       O  0.45771809  0.75134674  0.54790952    -0.66600
Ni1501     Ni  0.44198320  0.74496001  0.54448726     1.26300
O1502       O  0.42223716  0.76399400  0.47832456    -0.66900
O1503       O  0.44098925  0.74726170  0.59910665    -0.79200
C1504       C  0.44091206  0.70389900  0.53439554     0.84300
O1505       O  0.44641276  0.71774234  0.55028001    -0.66300
Ni1506     Ni  0.44363467  0.79296790  0.56083159     1.27400
Ni1507     Ni  0.43792861  0.77026166  0.48114427     1.26100
H1508       H  0.45093107  0.74361907  0.48325568     0.38800
O1509       O  0.32057095  0.70736804  0.36008509    -0.81100
O1510       O  0.31626828  0.79410111  0.40819385    -0.65800
O1511       O  0.30846488  0.74059741  0.38267035    -1.12400
C1512       C  0.31260702  0.76521185  0.25689946     1.05800
O1513       O  0.30287994  0.80403456  0.36942352    -0.79000
O1514       O  0.29187384  0.78078655  0.31756294    -0.66600
Ni1515     Ni  0.31566564  0.71866874  0.40724133     1.34900
C1516       C  0.28873218  0.76298602  0.31208320     0.84500
O1517       O  0.31156850  0.76186816  0.45125362    -0.79600
O1518       O  0.31146817  0.72849370  0.45639565    -0.89800
C1519       C  0.31022869  0.80798449  0.39457772     0.84100
O1520       O  0.33034275  0.72945649  0.41346783    -0.68000
O1521       O  0.30993926  0.78198458  0.27141076    -0.87300
C1522       C  0.33445418  0.74666117  0.40916414     0.84900
C1523       C  0.31140627  0.74586502  0.47093332     1.06500
H1524       H  0.32214960  0.77283299  0.33814444     0.38300
O1525       O  0.31430364  0.77063530  0.34379857    -1.10000
O1526       O  0.29509483  0.74805794  0.31838371    -0.66600
Ni1527     Ni  0.31099182  0.74416384  0.32904622     1.26300
O1528       O  0.32862339  0.76179245  0.40031367    -0.66900
O1529       O  0.31397527  0.74931392  0.27635516    -0.79200
C1530       C  0.31379854  0.70306826  0.33367034     0.84300
O1531       O  0.30816094  0.71668488  0.31752596    -0.66300
Ni1532     Ni  0.30655249  0.79216738  0.32111294     1.27400
Ni1533     Ni  0.31272739  0.76685417  0.39735624     1.26100
H1534       H  0.30045994  0.73924622  0.38701094     0.38800
O1535       O  0.31527687  0.70475494  0.87957238    -0.81100
O1536       O  0.31654457  0.79859348  0.90230225    -0.65800
O1537       O  0.30866879  0.74436550  0.88538833    -1.12400
C1538       C  0.31720327  0.76013267  0.75613235     1.05800
O1539       O  0.30653044  0.80884165  0.85304943    -0.79000
O1540       O  0.29642460  0.78276147  0.80512512    -0.66600
Ni1541     Ni  0.31597486  0.72511197  0.91719483     1.34900
C1542       C  0.29249215  0.76525493  0.80401278     0.84500
O1543       O  0.30842996  0.77035496  0.94738427    -0.79600
O1544       O  0.31706980  0.74202342  0.96122666    -0.89800
C1545       C  0.31145623  0.81224099  0.88443211     0.84100
O1546       O  0.33047023  0.73300642  0.89997285    -0.68000
O1547       O  0.31563485  0.77820846  0.76579058    -0.87300
C1548       C  0.33464745  0.75004137  0.90620655     0.84900
C1549       C  0.31248207  0.75821542  0.97131205     1.06500
H1550       H  0.32517160  0.77215721  0.84073814     0.38300
O1551       O  0.31706095  0.77144231  0.84269786    -1.10000
O1552       O  0.29780214  0.75012872  0.81635660    -0.66600
Ni1553     Ni  0.31299760  0.74460251  0.83243347     1.26300
O1554       O  0.32845891  0.76552909  0.90899982    -0.66900
O1555       O  0.31738928  0.74574606  0.77982000    -0.79200
C1556       C  0.31141603  0.70275166  0.84626405     0.84300
O1557       O  0.30917097  0.71731266  0.82461837    -0.66300
Ni1558     Ni  0.31138314  0.79229305  0.81119198     1.27400
Ni1559     Ni  0.31286492  0.77129882  0.89510433     1.26100
H1560       H  0.30062431  0.74298549  0.88784713     0.38800
O1561       O  0.43278631  0.05539575  0.36913585    -0.81100
O1562       O  0.43580259  0.96690608  0.41659032    -0.65800
O1563       O  0.44346804  0.02061725  0.39428320    -1.12400
C1564       C  0.44190126  0.99663797  0.26659064     1.05800
O1565       O  0.44941471  0.95724902  0.37867939    -0.79000
O1566       O  0.46069678  0.98006333  0.32736765    -0.66600
Ni1567     Ni  0.43561459  0.04224595  0.41701246     1.34900
C1568       C  0.46445645  0.99768607  0.32921555     0.84500
O1569       O  0.44036229  0.99827159  0.46104302    -0.79600
O1570       O  0.43794945  0.03133115  0.46686286    -0.89800
C1571       C  0.44182303  0.95316838  0.40276914     0.84100
O1572       O  0.42077912  0.03125170  0.41649452    -0.68000
O1573       O  0.44269687  0.97927898  0.28094138    -0.87300
C1574       C  0.41710865  0.01352559  0.41551791     0.84900
C1575       C  0.43910715  0.01397159  0.48097840     1.06500
H1576       H  0.43044896  0.98942690  0.34656508     0.38300
O1577       O  0.43827714  0.99093626  0.35326701    -1.10000
O1578       O  0.45837506  0.01257904  0.33770772    -0.66600
Ni1579     Ni  0.44243845  0.01727680  0.34027875     1.26300
O1580       O  0.42341876  0.99856829  0.41002282    -0.66900
O1581       O  0.44148092  0.01260791  0.28632884    -0.79200
C1582       C  0.44005263  0.05861299  0.34333192     0.84300
O1583       O  0.44598313  0.04451051  0.33021509    -0.66300
Ni1584     Ni  0.44589669  0.96911137  0.33054984     1.27400
Ni1585     Ni  0.43936542  0.99409656  0.40714973     1.26100
H1586       H  0.45127298  0.02226328  0.40110460     0.38800
O1587       O  0.43135653  0.05395782  0.88082843    -0.81100
O1588       O  0.43436996  0.96416487  0.91225649    -0.65800
O1589       O  0.44221565  0.01829527  0.89505937    -1.12400
C1590       C  0.43459244  0.00206219  0.76575577     1.05800
O1591       O  0.44454122  0.95396590  0.86348714    -0.79000
O1592       O  0.45461229  0.97913916  0.81475445    -0.66600
Ni1593     Ni  0.43543500  0.03881795  0.92476116     1.34900
C1594       C  0.45911251  0.99619479  0.81544787     0.84500
O1595       O  0.44170046  0.99300684  0.95808087    -0.79600
O1596       O  0.43897634  0.02537944  0.97145709    -0.89800
C1597       C  0.43935711  0.95046382  0.89424647     0.84100
O1598       O  0.42043341  0.02889402  0.92610992    -0.68000
O1599       O  0.43536088  0.98397141  0.77621984    -0.87300
C1600       C  0.41645874  0.01143743  0.92521547     0.84900
C1601       C  0.44111846  0.00752782  0.98131520     1.06500
H1602       H  0.42623788  0.99114797  0.84955270     0.38300
O1603       O  0.43427790  0.99136749  0.85213734    -1.10000
O1604       O  0.45420661  0.01160131  0.82856789    -0.66600
Ni1605     Ni  0.43884750  0.01803254  0.84174817     1.26300
O1606       O  0.42244152  0.99632113  0.91758248    -0.66900
O1607       O  0.43526368  0.01680734  0.78851939    -0.79200
C1608       C  0.43816327  0.05881572  0.85481642     0.84300
O1609       O  0.44309092  0.04545605  0.83547207    -0.66300
Ni1610     Ni  0.43964463  0.97010583  0.82146802     1.27400
Ni1611     Ni  0.43800226  0.99151760  0.90511022     1.26100
H1612       H  0.45023885  0.01935382  0.89835868     0.38800
O1613       O  0.31548890  0.05644198  0.01691643    -0.81100
O1614       O  0.31442362  0.96398722  0.98185961    -0.65800
O1615       O  0.30704774  0.01791821  0.00385559    -1.12400
C1616       C  0.31185624  0.99845034  0.13145042     1.05800
O1617       O  0.30388030  0.95148948  0.02794138    -0.79000
O1618       O  0.29157731  0.97873229  0.06687638    -0.66600
Ni1619     Ni  0.31523475  0.03771332  0.97582327     1.34900
C1620       C  0.28819777  0.99632126  0.07306382     0.84500
O1621       O  0.30685096  0.99383348  0.93942895    -0.79600
O1622       O  0.31551973  0.02253880  0.92932053    -0.89800
C1623       C  0.30945203  0.94954667  0.99738400     0.84100
O1624       O  0.32965532  0.02795248  0.99031534    -0.68000
O1625       O  0.30848904  0.98151784  0.11990551    -0.87300
C1626       C  0.33330045  0.01063383  0.98317565     0.84900
C1627       C  0.31044446  0.00720238  0.91714037     1.06500
H1628       H  0.32204730  0.98697556  0.04843638     0.38300
O1629       O  0.31411155  0.98882378  0.04471764    -1.10000
O1630       O  0.29478583  0.01115915  0.07009069    -0.66600
Ni1631     Ni  0.31043272  0.01579767  0.05704174     1.26300
O1632       O  0.32671546  0.99573345  0.98032685    -0.66900
O1633       O  0.31411863  0.01288883  0.10944247    -0.79200
C1634       C  0.31046108  0.05798196  0.04855987     0.84300
O1635       O  0.30699432  0.04305917  0.06715118    -0.66300
Ni1636     Ni  0.30643707  0.96811988  0.07194590     1.27400
Ni1637     Ni  0.31083664  0.99100066  0.99178805     1.26100
H1638       H  0.29906387  0.01996135  0.00008922     0.38800
O1639       O  0.32003963  0.05077007  0.52534729    -0.81100
O1640       O  0.31626385  0.96321775  0.48189487    -0.65800
O1641       O  0.30843980  0.01702736  0.50330874    -1.12400
C1642       C  0.30948624  0.99842138  0.63141812     1.05800
O1643       O  0.30562312  0.94997377  0.52735358    -0.79000
O1644       O  0.29156569  0.97791380  0.55672459    -0.66600
Ni1645     Ni  0.31618130  0.03829028  0.47849750     1.34900
C1646       C  0.28787904  0.99511645  0.56451859     0.84500
O1647       O  0.31153569  0.99422204  0.43726831    -0.79600
O1648       O  0.31290812  0.02736977  0.42974264    -0.89800
C1649       C  0.31119440  0.94850927  0.49657036     0.84100
O1650       O  0.33098410  0.02736363  0.47695837    -0.68000
O1651       O  0.30573014  0.98194762  0.61870980    -0.87300
C1652       C  0.33485643  0.00994949  0.48109189     0.84900
C1653       C  0.31205043  0.00982592  0.41652106     1.06500
H1654       H  0.32206273  0.98607808  0.55232852     0.38300
O1655       O  0.31426544  0.98800743  0.54579922    -1.10000
O1656       O  0.29437106  0.01022346  0.56588241    -0.66600
Ni1657     Ni  0.31035430  0.01508177  0.55710542     1.26300
O1658       O  0.32872154  0.99497350  0.48822364    -0.66900
O1659       O  0.31295646  0.01237406  0.61019699    -0.79200
C1660       C  0.31256371  0.05588800  0.54885429     0.84300
O1661       O  0.30675574  0.04264783  0.56523132    -0.66300
Ni1662     Ni  0.30592024  0.96760106  0.57083801     1.27400
Ni1663     Ni  0.31275063  0.99045190  0.49152818     1.26100
H1664       H  0.30054146  0.01846340  0.49769356     0.38800
C1665       C  0.30950598  0.00141933  0.67288133     0.01100
C1666       C  0.29928349  0.00456885  0.69209924     0.03900
C1667       C  0.29895537  0.00443046  0.73194962    -0.12100
C1668       C  0.30903368  0.00308182  0.75283461     0.23200
C1669       C  0.31939952  0.00165296  0.73350824    -0.12700
C1670       C  0.31960220  0.00019848  0.69361564     0.04600
C1671       C  0.30874999  0.00368916  0.79500195     0.27100
C1672       C  0.30673090  0.02179406  0.81376173    -0.13400
C1673       C  0.30642663  0.02246300  0.85362809     0.05100
C1674       C  0.30896973  0.00527990  0.87530957    -0.09400
C1675       C  0.31075608  0.98698686  0.85633069     0.06000
C1676       C  0.31048203  0.98621240  0.81630859    -0.13700
Br1677     Br  0.33329162  0.00186136  0.76175948    -0.05800
Br1678     Br  0.28587669  0.01069008  0.66399675    -0.00200
Br1679     Br  0.30178599  0.04688365  0.87804061     0.00300
Br1680     Br  0.31271108  0.96124919  0.79029963    -0.04100
Br1681     Br  0.33364337  0.99618118  0.66735841     0.00400
Br1682     Br  0.28465984  0.00564765  0.75782525    -0.03400
Br1683     Br  0.30478068  0.04591990  0.78468198    -0.04300
Br1684     Br  0.31409900  0.96299867  0.88422393    -0.00300
C1685       C  0.31223414  0.00785753  0.37461142     0.01100
C1686       C  0.30419470  0.99621335  0.35533855     0.03900
C1687       C  0.30457365  0.99466955  0.31543944    -0.12100
C1688       C  0.31261859  0.00551846  0.29456873     0.23200
C1689       C  0.32040862  0.01761498  0.31361366    -0.12700
C1690       C  0.32049382  0.01827062  0.35346432     0.04600
C1691       C  0.31283172  0.00443893  0.25250194     0.27100
C1692       C  0.32066707  0.99205119  0.23396483    -0.13400
C1693       C  0.32067043  0.99073350  0.19409085     0.05100
C1694       C  0.31271346  0.00149774  0.17274919    -0.09400
C1695       C  0.30506026  0.01425518  0.19125277     0.06000
C1696       C  0.30530968  0.01607016  0.23101349    -0.13700
Br1697     Br  0.33078680  0.03371891  0.28475405    -0.05800
Br1698     Br  0.29221086  0.98348091  0.38308514    -0.00200
Br1699     Br  0.33173985  0.97461599  0.16847911     0.00300
Br1700     Br  0.29553732  0.03479288  0.25619288    -0.04100
Br1701     Br  0.33241113  0.03277762  0.37849925     0.00400
Br1702     Br  0.29401681  0.97785072  0.28911620    -0.03400
Br1703     Br  0.33143387  0.97704267  0.26328541    -0.04300
Br1704     Br  0.29379833  0.02840043  0.16244979    -0.00300
C1705       C  0.40437309  0.00864831  0.93491304     0.01100
C1706       C  0.39973383  0.01884889  0.96644045     0.03900
C1707       C  0.38817801  0.01739431  0.97453477    -0.12100
C1708       C  0.38121493  0.00506718  0.95248163     0.23200
C1709       C  0.38588922  0.99394175  0.92249826    -0.12700
C1710       C  0.39738964  0.99587207  0.91336528     0.04600
C1711       C  0.36883942  0.00527433  0.95894419     0.27100
C1712       C  0.36379885  0.99226590  0.98528254    -0.13400
C1713       C  0.35216207  0.99365218  0.99305081     0.05100
C1714       C  0.34551942  0.00824593  0.97474328    -0.09400
C1715       C  0.35060978  0.02081656  0.94743524     0.06000
C1716       C  0.36219743  0.01940090  0.93985351    -0.13700
Br1717     Br  0.37637057  0.97646669  0.89335553    -0.05800
Br1718     Br  0.40919135  0.03407408  0.00030643    -0.00200
Br1719     Br  0.34555201  0.97610660  0.02999349     0.00300
Br1720     Br  0.36913299  0.03714938  0.90364802    -0.04100
Br1721     Br  0.40321064  0.98178045  0.86989370     0.00400
Br1722     Br  0.38171617  0.03279508  0.01531969    -0.03400
Br1723     Br  0.37299209  0.97296281  0.01134196    -0.04300
Br1724     Br  0.34171081  0.03950370  0.91854258    -0.00300
C1725       C  0.43371082  0.00571396  0.72433484     0.01100
C1726       C  0.44137229  0.01879868  0.70636856     0.03900
C1727       C  0.44162321  0.02025619  0.66654637    -0.12100
C1728       C  0.43479009  0.00780681  0.64427589     0.23200
C1729       C  0.42729848  0.99450255  0.66188183    -0.12700
C1730       C  0.42657781  0.99373253  0.70175106     0.04600
C1731       C  0.43569246  0.00855595  0.60228011     0.27100
C1732       C  0.42776867  0.01943447  0.58116005    -0.13400
C1733       C  0.42883806  0.02087649  0.54153134     0.05100
C1734       C  0.43813310  0.01206038  0.52279193    -0.09400
C1735       C  0.44612246  0.00126225  0.54414247     0.06000
C1736       C  0.44475975  0.99917900  0.58370052    -0.13700
Br1737     Br  0.41841630  0.97668296  0.63117966    -0.05800
Br1738     Br  0.45268708  0.03280308  0.73521436    -0.00200
Br1739     Br  0.41715476  0.03434898  0.51327603     0.00300
Br1740     Br  0.45535167  0.98365564  0.61284887    -0.04100
Br1741     Br  0.41588928  0.97590791  0.72511520     0.00400
Br1742     Br  0.45169249  0.03878972  0.64208631    -0.03400
Br1743     Br  0.41551650  0.03266809  0.60683411    -0.04300
Br1744     Br  0.45935442  0.99055075  0.51997757    -0.00300
C1745       C  0.44233573  0.00358377  0.02238536     0.01100
C1746       C  0.45038729  0.01403351  0.04393642     0.03900
C1747       C  0.45027946  0.01278272  0.08384048    -0.12100
C1748       C  0.44231386  0.00065184  0.10228120     0.23200
C1749       C  0.43474624  0.98922231  0.08068939    -0.12700
C1750       C  0.43456552  0.99102206  0.04089418     0.04600
C1751       C  0.44205207  0.99961463  0.14438136     0.27100
C1752       C  0.44966292  0.98716904  0.16352535    -0.13400
C1753       C  0.44984453  0.98674838  0.20340703     0.05100
C1754       C  0.44193669  0.99801347  0.22455092    -0.09400
C1755       C  0.43414537  0.01020676  0.20518795     0.06000
C1756       C  0.43428891  0.01112805  0.16519966    -0.13700
Br1757     Br  0.42467809  0.97102760  0.10587234    -0.05800
Br1758     Br  0.46173609  0.02965774  0.01867853    -0.00200
Br1759     Br  0.46154196  0.97162404  0.22840473     0.00300
Br1760     Br  0.42374026  0.02793678  0.13869011    -0.04100
Br1761     Br  0.42307761  0.97739551  0.01225446     0.00400
Br1762     Br  0.46099459  0.02772901  0.11343938    -0.03400
Br1763     Br  0.45971885  0.97039766  0.13469504    -0.04300
Br1764     Br  0.42292649  0.02499668  0.23301444    -0.00300
C1765       C  0.34707947  0.00704863  0.47564935     0.01100
C1766       C  0.35101637  0.99554884  0.44485992     0.03900
C1767       C  0.36256214  0.99517117  0.43610708    -0.12100
C1768       C  0.37022148  0.00629281  0.45795224     0.23200
C1769       C  0.36637978  0.01700020  0.48981613    -0.12700
C1770       C  0.35483120  0.01732270  0.49872204     0.04600
C1771       C  0.38220294  0.00749461  0.44614927     0.27100
C1772       C  0.39022461  0.99445168  0.46171602    -0.13400
C1773       C  0.40160170  0.99587971  0.45083761     0.05100
C1774       C  0.40497396  0.01014207  0.42340393    -0.09400
C1775       C  0.39675884  0.02245695  0.40652297     0.06000
C1776       C  0.38549070  0.02148961  0.41857291    -0.13700
Br1777     Br  0.37693991  0.03168947  0.52044336    -0.05800
Br1778     Br  0.34056568  0.98131318  0.41297911    -0.00200
Br1779     Br  0.41247029  0.97890885  0.47566376     0.00300
Br1780     Br  0.37451569  0.03967129  0.39794938    -0.04100
Br1781     Br  0.34960717  0.03158144  0.54285550     0.00400
Br1782     Br  0.36792645  0.97998759  0.39330113    -0.03400
Br1783     Br  0.38554949  0.97489366  0.49858811    -0.04300
Br1784     Br  0.40075714  0.03987969  0.36522278    -0.00300
C1785       C  0.31092409  0.83251465  0.90061230     0.01100
C1786       C  0.31496683  0.84877371  0.87926346     0.03900
C1787       C  0.31446388  0.86811723  0.89428745    -0.12100
C1788       C  0.30989362  0.87133665  0.93061003     0.23200
C1789       C  0.30564924  0.85524156  0.95173036    -0.12700
C1790       C  0.30618589  0.83585198  0.93684533     0.04600
C1791       C  0.30985402  0.89161572  0.94699976     0.27100
C1792       C  0.31905143  0.89804725  0.96896988    -0.13400
C1793       C  0.31903064  0.91722730  0.98479731     0.05100
C1794       C  0.30978608  0.92995589  0.97886315    -0.09400
C1795       C  0.30073780  0.92373689  0.95601763     0.06000
C1796       C  0.30076126  0.90456030  0.94011381    -0.13700
Br1797     Br  0.29899872  0.85994078  0.00092749    -0.05800
Br1798     Br  0.32164217  0.84455124  0.82996925    -0.00200
Br1799     Br  0.33162880  0.92603908  0.01477679     0.00300
Br1800     Br  0.28840398  0.89595308  0.90876267    -0.04100
Br1801     Br  0.29990811  0.81417787  0.96555740     0.00400
Br1802     Br  0.32009663  0.89035419  0.86538707    -0.03400
Br1803     Br  0.33166117  0.88048765  0.97718892    -0.04300
Br1804     Br  0.28845685  0.94171508  0.94596736    -0.00300
C1805       C  0.31782068  0.75588369  0.71464669     0.01100
C1806       C  0.31025603  0.74210721  0.69809885     0.03900
C1807       C  0.30901222  0.74116812  0.65832825    -0.12100
C1808       C  0.31537662  0.75369618  0.63462944     0.23200
C1809       C  0.32325240  0.76682527  0.65081078    -0.12700
C1810       C  0.32449126  0.76789996  0.69061349     0.04600
C1811       C  0.31429746  0.75198430  0.59259035     0.27100
C1812       C  0.32126749  0.73863334  0.57283632    -0.13400
C1813       C  0.32027507  0.73658392  0.53321376     0.05100
C1814       C  0.31194651  0.74737687  0.51302491    -0.09400
C1815       C  0.30471171  0.76025716  0.53312396     0.06000
C1816       C  0.30608960  0.76295562  0.57260906    -0.13700
Br1817     Br  0.33225896  0.78343852  0.61815224    -0.05800
Br1818     Br  0.30098405  0.72513944  0.72931588    -0.00200
Br1819     Br  0.33084819  0.71959270  0.50702970     0.00300
Br1820     Br  0.29680687  0.78177017  0.59944605    -0.04100
Br1821     Br  0.33563807  0.78539321  0.71214197     0.00400
Br1822     Br  0.29838628  0.72293479  0.63590483    -0.03400
Br1823     Br  0.33224279  0.72315432  0.60048705    -0.04300
Br1824     Br  0.29236502  0.77298033  0.50717178    -0.00300
C1825       C  0.31242645  0.76285615  0.01240353     0.01100
C1826       C  0.32262852  0.76196680  0.03283490     0.03900
C1827       C  0.32257828  0.76193950  0.07265591    -0.12100
C1828       C  0.31246456  0.76506406  0.09247173     0.23200
C1829       C  0.30232128  0.76751646  0.07213840    -0.12700
C1830       C  0.30224173  0.76565458  0.03223288     0.04600
C1831       C  0.31255945  0.76506188  0.13465167     0.27100
C1832       C  0.30845422  0.74848364  0.15471329    -0.13400
C1833       C  0.30844376  0.74845053  0.19464868     0.05100
C1834       C  0.31349035  0.76429215  0.21487989    -0.09400
C1835       C  0.31821913  0.78038037  0.19444278     0.06000
C1836       C  0.31731933  0.78111730  0.15462978    -0.13700
Br1837     Br  0.28851022  0.77269059  0.09915898    -0.05800
Br1838     Br  0.33681615  0.76165247  0.00654549    -0.00200
Br1839     Br  0.30054875  0.72738888  0.22076199     0.00300
Br1840     Br  0.32248998  0.80426877  0.12728868    -0.04100
Br1841     Br  0.28812984  0.76521706  0.00530329     0.00400
Br1842     Br  0.33628080  0.75623669  0.10010842    -0.03400
Br1843     Br  0.30296242  0.72561760  0.12728040    -0.04300
Br1844     Br  0.32640296  0.80115056  0.22037498    -0.00300
C1845       C  0.31151513  0.82891768  0.40777523     0.01100
C1846       C  0.31204337  0.83362317  0.44686567     0.03900
C1847       C  0.31236220  0.85365007  0.45870978    -0.12100
C1848       C  0.31230495  0.86915548  0.43175636     0.23200
C1849       C  0.31234249  0.86451763  0.39277846    -0.12700
C1850       C  0.31196460  0.84452780  0.38078837     0.04600
C1851       C  0.31200775  0.89027603  0.44475098     0.27100
C1852       C  0.30165381  0.89927896  0.45388172    -0.13400
C1853       C  0.30137796  0.91844049  0.47006126     0.05100
C1854       C  0.31149176  0.92887115  0.47707174    -0.09400
C1855       C  0.32184074  0.92010077  0.46651954     0.06000
C1856       C  0.32206621  0.90097813  0.45004028    -0.13700
Br1857     Br  0.31294703  0.88567948  0.35586574    -0.05800
Br1858     Br  0.31193101  0.81290568  0.48467379    -0.00200
Br1859     Br  0.28703845  0.93045135  0.48187282     0.00300
Br1860     Br  0.33616472  0.88922190  0.43491732    -0.04100
Br1861     Br  0.31268842  0.83867583  0.32710449     0.00400
Br1862     Br  0.31277115  0.86001830  0.51212549    -0.03400
Br1863     Br  0.28782483  0.88523322  0.44397456    -0.04300
Br1864     Br  0.33582464  0.93345007  0.47739678    -0.00300
C1865       C  0.43926369  0.83099431  0.47089382     0.01100
C1866       C  0.44925216  0.84042631  0.45897783     0.03900
C1867       C  0.44901880  0.86039843  0.44738168    -0.12100
C1868       C  0.43875386  0.87079216  0.44626389     0.23200
C1869       C  0.42866761  0.86108044  0.45580433    -0.12700
C1870       C  0.42890671  0.84121877  0.46831063     0.04600
C1871       C  0.43865019  0.89202539  0.43534698     0.27100
C1872       C  0.43954413  0.90679860  0.46349432    -0.13400
C1873       C  0.44001415  0.92696013  0.45310769     0.05100
C1874       C  0.44010101  0.93230937  0.41436231    -0.09400
C1875       C  0.43884033  0.91747639  0.38625169     0.06000
C1876       C  0.43808259  0.89738240  0.39679959    -0.13700
Br1877     Br  0.41459220  0.87526071  0.45241002    -0.05800
Br1878     Br  0.46317926  0.82573244  0.45648271    -0.00200
Br1879     Br  0.44095561  0.94699394  0.49214507     0.00300
Br1880     Br  0.43652696  0.87701617  0.35856119    -0.04100
Br1881     Br  0.41508036  0.82851109  0.48356703     0.00400
Br1882     Br  0.46278710  0.87379092  0.43377235    -0.03400
Br1883     Br  0.44068607  0.89922892  0.51620582    -0.04300
Br1884     Br  0.43763293  0.92460635  0.33324895    -0.00300
C1885       C  0.40455221  0.75050885  0.46286118     0.01100
C1886       C  0.40063787  0.76378312  0.43463421     0.03900
C1887       C  0.38915631  0.76435850  0.42543720    -0.12100
C1888       C  0.38157358  0.75188256  0.44461666     0.23200
C1889       C  0.38542284  0.73883972  0.47306568    -0.12700
C1890       C  0.39692367  0.73796598  0.48189040     0.04600
C1891       C  0.36959696  0.75169363  0.43367884     0.27100
C1892       C  0.36181713  0.76357828  0.45340972    -0.13400
C1893       C  0.35030313  0.76224521  0.44483844     0.05100
C1894       C  0.34658759  0.74916672  0.41610830    -0.09400
C1895       C  0.35445459  0.73748875  0.39604621     0.06000
C1896       C  0.36595298  0.73886154  0.40467201    -0.13700
Br1897     Br  0.37490040  0.72185205  0.49922816    -0.05800
Br1898     Br  0.41099975  0.78010497  0.40613679    -0.00200
Br1899     Br  0.33961176  0.77711595  0.47476879     0.00300
Br1900     Br  0.37678436  0.72299768  0.37722877    -0.04100
Br1901     Br  0.40219705  0.71950769  0.51993260     0.00400
Br1902     Br  0.38379296  0.78161257  0.38551405    -0.03400
Br1903     Br  0.36699959  0.78126462  0.49281325    -0.04300
Br1904     Br  0.34955115  0.71960022  0.35667179    -0.00300
C1905       C  0.44165836  0.75968488  0.66265576     0.01100
C1906       C  0.43363959  0.74824960  0.68243786     0.03900
C1907       C  0.43419922  0.74672558  0.72236448    -0.12100
C1908       C  0.44247692  0.75731312  0.74273852     0.23200
C1909       C  0.45049919  0.76864951  0.72301885    -0.12700
C1910       C  0.45030913  0.76932686  0.68318884     0.04600
C1911       C  0.44265479  0.75703013  0.78491605     0.27100
C1912       C  0.43495012  0.76876300  0.80554610    -0.13400
C1913       C  0.43511784  0.76859083  0.84549654     0.05100
C1914       C  0.44303509  0.75672781  0.86492003    -0.09400
C1915       C  0.45114812  0.74594279  0.84432235     0.06000
C1916       C  0.45087084  0.74584916  0.80441150    -0.13700
Br1917     Br  0.46159836  0.78378300  0.75079724    -0.05800
Br1918     Br  0.42149794  0.73574309  0.65528594    -0.00200
Br1919     Br  0.42417797  0.78397782  0.87343253     0.00300
Br1920     Br  0.46162077  0.73010636  0.77645237    -0.04100
Br1921     Br  0.46232341  0.78288493  0.65717727     0.00400
Br1922     Br  0.42357217  0.73033911  0.74937190    -0.03400
Br1923     Br  0.42407453  0.78490506  0.77895827    -0.04300
Br1924     Br  0.46288596  0.73188708  0.87104568    -0.00300
C1925       C  0.43609953  0.75786469  0.16240981     0.01100
C1926       C  0.42693415  0.76715145  0.18061422     0.03900
C1927       C  0.42662313  0.76839157  0.22044821    -0.12100
C1928       C  0.43525155  0.75961511  0.24211809     0.23200
C1929       C  0.44400329  0.74918781  0.22406676    -0.12700
C1930       C  0.44454724  0.74863407  0.18430035     0.04600
C1931       C  0.43493020  0.76022014  0.28401739     0.27100
C1932       C  0.44209819  0.77311255  0.30419974    -0.13400
C1933       C  0.44327374  0.77108233  0.34379558     0.05100
C1934       C  0.43686419  0.75668765  0.36336868    -0.09400
C1935       C  0.42883309  0.74524606  0.34320973     0.06000
C1936       C  0.42821806  0.74647011  0.30356171    -0.13700
Br1937     Br  0.45530563  0.73576558  0.25409218    -0.05800
Br1938     Br  0.41470502  0.77776783  0.15083175    -0.00200
Br1939     Br  0.45415960  0.78719517  0.37028386     0.00300
Br1940     Br  0.41859361  0.72853648  0.27562398    -0.04100
Br1941     Br  0.45734388  0.73647525  0.16037801     0.00400
Br1942     Br  0.41453142  0.78234747  0.24540745    -0.03400
Br1943     Br  0.45055356  0.79305550  0.27713540    -0.04300
Br1944     Br  0.41810518  0.72854095  0.36934729    -0.00300
C1945       C  0.44209616  0.83086801  0.97847727     0.01100
C1946       C  0.43267693  0.84289569  0.98610556     0.03900
C1947       C  0.43232919  0.86253472  0.97264937    -0.12100
C1948       C  0.44151116  0.87029870  0.95224922     0.23200
C1949       C  0.45104473  0.85838693  0.94528622    -0.12700
C1950       C  0.45130569  0.83860865  0.95820609     0.04600
C1951       C  0.44100068  0.89087712  0.93748035     0.27100
C1952       C  0.43671217  0.89445491  0.90087111    -0.13400
C1953       C  0.43604169  0.91399967  0.88693121     0.05100
C1954       C  0.43962431  0.93007235  0.90971411    -0.09400
C1955       C  0.44390933  0.92641910  0.94643914     0.06000
C1956       C  0.44460470  0.90683935  0.96023330    -0.13700
Br1957     Br  0.46366088  0.86920712  0.91782826    -0.05800
Br1958     Br  0.42041074  0.83258017  0.01605123    -0.00200
Br1959     Br  0.42986166  0.91868520  0.83699638     0.00300
Br1960     Br  0.45065834  0.90172108  0.01011909    -0.04100
Br1961     Br  0.46408468  0.82190511  0.94723714     0.00400
Br1962     Br  0.41924472  0.87881245  0.98172944    -0.03400
Br1963     Br  0.43173531  0.87244030  0.87002421    -0.04300
Br1964     Br  0.44948997  0.94796429  0.97718196    -0.00300
C1965       C  0.34699457  0.75159445  0.91312397     0.01100
C1966       C  0.35255072  0.73690529  0.93529764     0.03900
C1967       C  0.36413505  0.73848657  0.94276844    -0.12100
C1968       C  0.37032471  0.75459045  0.92834099     0.23200
C1969       C  0.36491220  0.76926748  0.90652904    -0.12700
C1970       C  0.35327484  0.76796485  0.89926170     0.04600
C1971       C  0.38262566  0.75557095  0.93542408     0.27100
C1972       C  0.38686471  0.76597878  0.96703380    -0.13400
C1973       C  0.39840522  0.76493293  0.97612378     0.05100
C1974       C  0.40573184  0.75324095  0.95371404    -0.09400
C1975       C  0.40150338  0.74381774  0.92067313     0.06000
C1976       C  0.39000260  0.74495076  0.91174600    -0.13700
Br1977     Br  0.37361501  0.79096021  0.88606834    -0.05800
Br1978     Br  0.34440118  0.71513514  0.95842437    -0.00200
Br1979     Br  0.40390777  0.77877738  0.02029893     0.00300
Br1980     Br  0.38421093  0.73168900  0.86722506    -0.04100
Br1981     Br  0.34624527  0.78855189  0.86934954     0.00400
Br1982     Br  0.37166972  0.71855403  0.97309200    -0.03400
Br1983     Br  0.37670139  0.78117392  0.99835987    -0.04300
Br1984     Br  0.41143713  0.72990787  0.88623271    -0.00300
C1985       C  0.31331486  0.18195744  0.58140268     0.01100
C1986       C  0.30272241  0.17271799  0.57899221     0.03900
C1987       C  0.30201194  0.15215260  0.57233448    -0.12100
C1988       C  0.31187557  0.14093382  0.56665937     0.23200
C1989       C  0.32241098  0.15048310  0.56601014    -0.12700
C1990       C  0.32316842  0.17083039  0.57477430     0.04600
C1991       C  0.31120389  0.11900770  0.56291213     0.27100
C1992       C  0.31283846  0.10675235  0.59500308    -0.13400
C1993       C  0.31246858  0.08590120  0.59130624     0.05100
C1994       C  0.31071112  0.07732286  0.55532601    -0.09400
C1995       C  0.30845762  0.08964561  0.52373599     0.06000
C1996       C  0.30880868  0.11042044  0.52744606    -0.13700
Br1997     Br  0.33575435  0.13559120  0.55330490    -0.05800
Br1998     Br  0.28923691  0.18798392  0.58785405    -0.00200
Br1999     Br  0.31470107  0.06916564  0.63513395     0.00300
Br2000     Br  0.30633474  0.12720616  0.48377801    -0.04100
Br2001     Br  0.33770633  0.18326093  0.57947754     0.00400
Br2002     Br  0.28757834  0.13912822  0.57250144    -0.03400
Br2003     Br  0.31592882  0.11863224  0.64373344    -0.04300
Br2004     Br  0.30448153  0.07802430  0.47544238    -0.00300
C2005       C  0.30850250  0.07833698  0.06277167     0.01100
C2006       C  0.30222700  0.09161689  0.04007224     0.03900
C2007       C  0.30199572  0.11198041  0.04875784    -0.12100
C2008       C  0.30812527  0.11925391  0.07995145     0.23200
C2009       C  0.31390998  0.10589345  0.10391882    -0.12700
C2010       C  0.31402020  0.08538720  0.09551899     0.04600
C2011       C  0.30949307  0.14105846  0.08454304     0.27100
C2012       C  0.31829300  0.15080788  0.06524599    -0.13400
C2013       C  0.31949767  0.17154296  0.06814708     0.05100
C2014       C  0.31161916  0.18271713  0.08896179    -0.09400
C2015       C  0.30279015  0.17300998  0.10819481     0.06000
C2016       C  0.30179232  0.15217395  0.10630549    -0.13700
Br2017     Br  0.32231508  0.11596896  0.14655600    -0.05800
Br2018     Br  0.29422804  0.08198025  0.99603771    -0.00200
Br2019     Br  0.33200658  0.18466723  0.04401054     0.00300
Br2020     Br  0.29001791  0.13877382  0.13382450    -0.04100
Br2021     Br  0.32247013  0.06725487  0.12692073     0.00400
Br2022     Br  0.29392516  0.13023395  0.01637597    -0.03400
Br2023     Br  0.32863198  0.13565081  0.03449601    -0.04300
Br2024     Br  0.29241822  0.18825157  0.13870335    -0.00300
C2025       C  0.31065981  0.26189949  0.97005651     0.01100
C2026       C  0.31947516  0.25240995  0.95033731     0.03900
C2027       C  0.31906190  0.25091209  0.91042434    -0.12100
C2028       C  0.30977415  0.25862510  0.89033223     0.23200
C2029       C  0.30089078  0.26773815  0.91002100    -0.12700
C2030       C  0.30139529  0.26966976  0.94963160     0.04600
C2031       C  0.30948121  0.25792981  0.84831622     0.27100
C2032       C  0.31283904  0.27466327  0.82715723    -0.13400
C2033       C  0.31265566  0.27409722  0.78722023     0.05100
C2034       C  0.30925568  0.25657568  0.76830901    -0.09400
C2035       C  0.30531869  0.24022689  0.78975358     0.06000
C2036       C  0.30547953  0.24088986  0.82962929    -0.13700
Br2037     Br  0.28801344  0.27765753  0.88239257    -0.05800
Br2038     Br  0.33240059  0.24263710  0.97762395    -0.00200
Br2039     Br  0.31753630  0.29717370  0.75932068     0.00300
Br2040     Br  0.30029103  0.21843918  0.85888354    -0.04100
Br2041     Br  0.28920024  0.28297862  0.97540350     0.00400
Br2042     Br  0.33128010  0.23873116  0.88291432    -0.03400
Br2043     Br  0.31792684  0.29823503  0.85326863    -0.04300
Br2044     Br  0.29929488  0.21705782  0.76454372    -0.00300
C2045       C  0.31311820  0.25188438  0.26943031     0.01100
C2046       C  0.32320114  0.24640807  0.28805114     0.03900
C2047       C  0.32398574  0.24732662  0.32779191    -0.12100
C2048       C  0.31468798  0.25347568  0.34943125     0.23200
C2049       C  0.30448469  0.25835293  0.33118852    -0.12700
C2050       C  0.30371425  0.25771001  0.29118253     0.04600
C2051       C  0.31573821  0.25495104  0.39138333     0.27100
C2052       C  0.31228543  0.23909653  0.41466061    -0.13400
C2053       C  0.31276141  0.24088404  0.45446543     0.05100
C2054       C  0.31725744  0.25826737  0.47131968    -0.09400
C2055       C  0.32130684  0.27369956  0.44761398     0.06000
C2056       C  0.32032876  0.27217297  0.40787711    -0.13700
Br2057     Br  0.29153383  0.26535293  0.36136952    -0.05800
Br2058     Br  0.33613398  0.23764063  0.25938581    -0.00200
Br2059     Br  0.30608170  0.22019134  0.48505294     0.00300
Br2060     Br  0.32498514  0.29390760  0.37570950    -0.04100
Br2061     Br  0.28963937  0.26359594  0.26650903     0.00400
Br2062     Br  0.33779024  0.23983593  0.35289829    -0.03400
Br2063     Br  0.30662216  0.21507278  0.39168492    -0.04300
Br2064     Br  0.32832108  0.29701147  0.46913627    -0.00300
C2065       C  0.43749440  0.18537303  0.82133468     0.01100
C2066       C  0.44781774  0.17527604  0.81703904     0.03900
C2067       C  0.44840023  0.15458425  0.82278467    -0.12100
C2068       C  0.43875857  0.14395568  0.83395346     0.23200
C2069       C  0.42857890  0.15417083  0.84028523    -0.12700
C2070       C  0.42793650  0.17481424  0.83382842     0.04600
C2071       C  0.43931160  0.12199877  0.83848778     0.27100
C2072       C  0.43730627  0.10945377  0.80712829    -0.13400
C2073       C  0.43742900  0.08863382  0.81169089     0.05100
C2074       C  0.43981959  0.08028315  0.84751315    -0.09400
C2075       C  0.44239629  0.09291017  0.87840744     0.06000
C2076       C  0.44190421  0.11367439  0.87408614    -0.13700
Br2077     Br  0.41544505  0.13966990  0.85655206    -0.05800
Br2078     Br  0.46104434  0.18955056  0.80098353    -0.00200
Br2079     Br  0.43345742  0.07175609  0.76960656     0.00300
Br2080     Br  0.44440197  0.13080450  0.91720187    -0.04100
Br2081     Br  0.41400398  0.18869255  0.84265011     0.00400
Br2082     Br  0.46224995  0.14048505  0.81337270    -0.03400
Br2083     Br  0.43401973  0.12093668  0.75819261    -0.04300
Br2084     Br  0.44684214  0.08176471  0.92673914    -0.00300
C2085       C  0.40450349  0.25178827  0.71508736     0.01100
C2086       C  0.39623719  0.23998918  0.73279783     0.03900
C2087       C  0.38504093  0.24076168  0.72023663    -0.12100
C2088       C  0.38186311  0.25441196  0.69181009     0.23200
C2089       C  0.38996339  0.26703849  0.67553090    -0.12700
C2090       C  0.40132364  0.26534739  0.68628525     0.04600
C2091       C  0.36985685  0.25608747  0.68097018     0.27100
C2092       C  0.36580897  0.24719147  0.64741662    -0.13400
C2093       C  0.35419091  0.24720470  0.63959822     0.05100
C2094       C  0.34652755  0.25438415  0.66694729    -0.09400
C2095       C  0.35067973  0.26307592  0.70061943     0.06000
C2096       C  0.36229317  0.26507016  0.70636218    -0.13700
Br2097     Br  0.38540803  0.28681481  0.63893029    -0.05800
Br2098     Br  0.40004697  0.22375025  0.77604969    -0.00200
Br2099     Br  0.34877634  0.23752573  0.59141100     0.00300
Br2100     Br  0.36792552  0.27928991  0.75008063    -0.04100
Br2101     Br  0.41248942  0.28090827  0.65982406     0.00400
Br2102     Br  0.37401663  0.22297588  0.74184381    -0.03400
Br2103     Br  0.37609355  0.23397444  0.61344762    -0.04300
Br2104     Br  0.34078533  0.26930981  0.74190915    -0.00300
C2105       C  0.44211796  0.18402486  0.29916522     0.01100
C2106       C  0.44067525  0.17543976  0.33541358     0.03900
C2107       C  0.44181056  0.15470920  0.34027978    -0.12100
C2108       C  0.44383051  0.14231208  0.30871417     0.23200
C2109       C  0.44540408  0.15084038  0.27261782    -0.12700
C2110       C  0.44473038  0.17160820  0.26793717     0.04600
C2111       C  0.44326378  0.12029422  0.31307332     0.27100
C2112       C  0.45290373  0.10919736  0.32275733    -0.13400
C2113       C  0.45201767  0.08864603  0.33025516     0.05100
C2114       C  0.44142496  0.07916161  0.32862632    -0.09400
C2115       C  0.43194056  0.09008333  0.31651040     0.06000
C2116       C  0.43286875  0.11053929  0.30869014    -0.13700
Br2117     Br  0.44812254  0.13388022  0.22941144    -0.05800
Br2118     Br  0.43594940  0.19160728  0.37761864    -0.00200
Br2119     Br  0.46524081  0.07387316  0.34497427     0.00300
Br2120     Br  0.41983264  0.12543197  0.29260035    -0.04100
Br2121     Br  0.44750811  0.18299438  0.21846708     0.00400
Br2122     Br  0.44026276  0.14304890  0.39005858    -0.03400
Br2123     Br  0.46722634  0.12240060  0.32693975    -0.04300
Br2124     Br  0.41769201  0.07694474  0.30956279    -0.00300
C2125       C  0.44053815  0.25816805  0.42436570     0.01100
C2126       C  0.43516692  0.27135481  0.44989637     0.03900
C2127       C  0.43675253  0.26927484  0.48928033    -0.12100
C2128       C  0.44311488  0.25334360  0.50373979     0.23200
C2129       C  0.44846578  0.24010944  0.47859549    -0.12700
C2130       C  0.44753453  0.24292645  0.43904746     0.04600
C2131       C  0.44344325  0.25001243  0.54545222     0.27100
C2132       C  0.45170912  0.25917735  0.56816847    -0.13400
C2133       C  0.45116127  0.25768865  0.60810032     0.05100
C2134       C  0.44209470  0.24767539  0.62547530    -0.09400
C2135       C  0.43385605  0.23843576  0.60247988     0.06000
C2136       C  0.43469707  0.23923507  0.56269038    -0.13700
Br2137     Br  0.45720644  0.21832065  0.49854353    -0.05800
Br2138     Br  0.42538431  0.29216452  0.43149363    -0.00200
Br2139     Br  0.46301057  0.26879116  0.63883886     0.00300
Br2140     Br  0.42360680  0.22616030  0.53137980    -0.04100
Br2141     Br  0.45694445  0.22730199  0.40573878     0.00400
Br2142     Br  0.43036254  0.28847809  0.52387805    -0.03400
Br2143     Br  0.46352067  0.27432977  0.54440402    -0.04300
Br2144     Br  0.42080807  0.22603028  0.62497259    -0.00300
C2145       C  0.43760727  0.26712715  0.92226075     0.01100
C2146       C  0.44463625  0.25303873  0.94044521     0.03900
C2147       C  0.44595645  0.25339038  0.98017370    -0.12100
C2148       C  0.44034201  0.26779564  0.00210655     0.23200
C2149       C  0.43354891  0.28213189  0.98408672    -0.12700
C2150       C  0.43206166  0.28166493  0.94437873     0.04600
C2151       C  0.44044360  0.26621010  0.04424965     0.27100
C2152       C  0.43223251  0.25445880  0.06209499    -0.13400
C2153       C  0.43236311  0.25192427  0.10167691     0.05100
C2154       C  0.44084507  0.26098136  0.12401088    -0.09400
C2155       C  0.44886583  0.27336575  0.10618867     0.06000
C2156       C  0.44870496  0.27582749  0.06631396    -0.13700
Br2157     Br  0.42632996  0.30242494  0.01413028    -0.05800
Br2158     Br  0.45307129  0.23382589  0.91123520    -0.00200
Br2159     Br  0.42040161  0.23672967  0.12491837     0.00300
Br2160     Br  0.45989012  0.29199745  0.04156320    -0.04100
Br2161     Br  0.42197363  0.30039212  0.92061896     0.00400
Br2162     Br  0.45556811  0.23421232  0.00489575    -0.03400
Br2163     Br  0.42079922  0.24159486  0.03182721    -0.04300
Br2164     Br  0.46030111  0.28642050  0.13591132    -0.00300
C2165       C  0.40545421  0.25621919  0.21980436     0.01100
C2166       C  0.39752416  0.24367790  0.23757161     0.03900
C2167       C  0.38602021  0.24504079  0.22814695    -0.12100
C2168       C  0.38229429  0.25905163  0.20113272     0.23200
C2169       C  0.39009120  0.27233356  0.18490016    -0.12700
C2170       C  0.40164739  0.27070043  0.19356418     0.04600
C2171       C  0.37031809  0.25894746  0.18820621     0.27100
C2172       C  0.36680314  0.24516271  0.16052040    -0.13400
C2173       C  0.35540574  0.24411068  0.14968397     0.05100
C2174       C  0.34733268  0.25674918  0.16667797    -0.09400
C2175       C  0.35102760  0.27152121  0.19253158     0.06000
C2176       C  0.36242627  0.27228026  0.20379140    -0.13700
Br2177     Br  0.38488745  0.29260712  0.15031693    -0.05800
Br2178     Br  0.40237298  0.22478489  0.27544923    -0.00200
Br2179     Br  0.35096974  0.22574676  0.11028833     0.00300
Br2180     Br  0.36719470  0.29078795  0.24238100    -0.04100
Br2181     Br  0.41226277  0.28714030  0.16650181     0.00400
Br2182     Br  0.37527274  0.22765773  0.25216315    -0.03400
Br2183     Br  0.37762716  0.22718199  0.13837792    -0.04300
Br2184     Br  0.34055266  0.29028494  0.21428734    -0.00300
C2185       C  0.31123789  0.57780177  0.80369736     0.01100
C2186       C  0.30255423  0.58887184  0.78654379     0.03900
C2187       C  0.30194264  0.60952902  0.79207802    -0.12100
C2188       C  0.31002764  0.61914452  0.81473627     0.23200
C2189       C  0.31866873  0.60803504  0.83216042    -0.12700
C2190       C  0.31929200  0.58736810  0.82650302     0.04600
C2191       C  0.30949619  0.64096531  0.82005028     0.27100
C2192       C  0.31599189  0.65362262  0.79688940    -0.13400
C2193       C  0.31603633  0.67424622  0.80356028     0.05100
C2194       C  0.30958491  0.68219263  0.83344616    -0.09400
C2195       C  0.30270184  0.66958282  0.85551062     0.06000
C2196       C  0.30268263  0.64900531  0.84887339    -0.13700
Br2197     Br  0.32978319  0.62126798  0.86296520    -0.05800
Br2198     Br  0.29184182  0.57581789  0.75385582    -0.00200
Br2199     Br  0.32563787  0.69134285  0.77390248     0.00300
Br2200     Br  0.29370502  0.63165600  0.88026188    -0.04100
Br2201     Br  0.33129880  0.57213696  0.84908938     0.00400
Br2202     Br  0.29028072  0.62484924  0.76767102    -0.03400
Br2203     Br  0.32522428  0.64249630  0.75722045    -0.04300
Br2204     Br  0.29342580  0.68050370  0.89545341    -0.00300
C2205       C  0.31026308  0.42751001  0.74112985     0.01100
C2206       C  0.30135859  0.42040875  0.71870165     0.03900
C2207       C  0.30181797  0.40110886  0.70370109    -0.12100
C2208       C  0.31100856  0.38864454  0.71218914     0.23200
C2209       C  0.31999658  0.39582937  0.73436109    -0.12700
C2210       C  0.31970890  0.41542586  0.74823882     0.04600
C2211       C  0.31127726  0.36829851  0.69628116     0.27100
C2212       C  0.30478752  0.35313104  0.71307139    -0.13400
C2213       C  0.30385976  0.33454665  0.69513689     0.05100
C2214       C  0.30992367  0.33075824  0.66159194    -0.09400
C2215       C  0.31637417  0.34592833  0.64471997     0.06000
C2216       C  0.31699951  0.36472183  0.66194585    -0.13700
Br2217     Br  0.33267737  0.37889290  0.74536455    -0.05800
Br2218     Br  0.28872943  0.43743092  0.70750432    -0.00200
Br2219     Br  0.29337122  0.31504143  0.71404971     0.00300
Br2220     Br  0.32538064  0.38583477  0.63798528    -0.04100
Br2221     Br  0.33225753  0.42589275  0.77660900     0.00400
Br2222     Br  0.29005014  0.39188933  0.67036354    -0.03400
Br2223     Br  0.29697086  0.35803599  0.76013286    -0.04300
Br2224     Br  0.32417411  0.34107135  0.59757398    -0.00300
C2225       C  0.30990917  0.57631957  0.31007408     0.01100
C2226       C  0.30709861  0.58853432  0.27879557     0.03900
C2227       C  0.30693544  0.60932163  0.28268318    -0.12100
C2228       C  0.30974877  0.61810069  0.31763517     0.23200
C2229       C  0.31208532  0.60595331  0.34937174    -0.12700
C2230       C  0.31203996  0.58505829  0.34569632     0.04600
C2231       C  0.31061195  0.64010217  0.32027936     0.27100
C2232       C  0.32068308  0.64969238  0.30980733    -0.13400
C2233       C  0.32137054  0.67057592  0.31062318     0.05100
C2234       C  0.31222764  0.68190965  0.32400547    -0.09400
C2235       C  0.30215072  0.67231367  0.33432941     0.06000
C2236       C  0.30124885  0.65150708  0.33149450    -0.13700
Br2237     Br  0.31580656  0.61804116  0.39734435    -0.05800
Br2238     Br  0.30341571  0.57684607  0.23030693    -0.00200
Br2239     Br  0.33468358  0.68375781  0.29229353     0.00300
Br2240     Br  0.28724166  0.63852457  0.34333079    -0.04100
Br2241     Br  0.31552578  0.56845455  0.38874374     0.00400
Br2242     Br  0.30310579  0.62596682  0.23989331    -0.03400
Br2243     Br  0.33362224  0.63412250  0.29538604    -0.04300
Br2244     Br  0.28985727  0.68751334  0.35506312    -0.00300
C2245       C  0.30963201  0.49449884  0.42492583     0.01100
C2246       C  0.30040411  0.48621318  0.44484819     0.03900
C2247       C  0.29991834  0.48737211  0.48466057    -0.12100
C2248       C  0.30879144  0.49616015  0.50495200     0.23200
C2249       C  0.31792233  0.50465109  0.48526232    -0.12700
C2250       C  0.31830056  0.50398923  0.44529827     0.04600
C2251       C  0.30827622  0.49722641  0.54698803     0.27100
C2252       C  0.30428977  0.51459316  0.56449827    -0.13400
C2253       C  0.30449830  0.51633310  0.60424308     0.05100
C2254       C  0.30838270  0.50031778  0.62704074    -0.09400
C2255       C  0.31098703  0.48195205  0.60925715     0.06000
C2256       C  0.31146468  0.48080172  0.56931952    -0.13700
Br2257     Br  0.32982442  0.51742540  0.51328925    -0.05800
Br2258     Br  0.28806993  0.47391160  0.41802272    -0.00200
Br2259     Br  0.29874197  0.54051602  0.62680127     0.00300
Br2260     Br  0.31686615  0.45694739  0.54489621    -0.04100
Br2261     Br  0.33088517  0.51547890  0.41869258     0.00400
Br2262     Br  0.28685946  0.47774536  0.51160498    -0.03400
Br2263     Br  0.29853651  0.53603274  0.53355834    -0.04300
Br2264     Br  0.31351572  0.45796570  0.63820905    -0.00300
C2265       C  0.31063444  0.51031817  0.12696529     0.01100
C2266       C  0.30190997  0.50056453  0.10737469     0.03900
C2267       C  0.30198103  0.50005440  0.06743530    -0.12100
C2268       C  0.31091728  0.50878333  0.04718117     0.23200
C2269       C  0.31961852  0.51854217  0.06664724    -0.12700
C2270       C  0.31947484  0.51940625  0.10642585     0.04600
C2271       C  0.31130862  0.50741337  0.00533042     0.27100
C2272       C  0.31600441  0.49050127  0.98812254    -0.13400
C2273       C  0.31653436  0.48917997  0.94840197     0.05100
C2274       C  0.31189004  0.50443145  0.92552295    -0.09400
C2275       C  0.30738749  0.52161486  0.94303812     0.06000
C2276       C  0.30719211  0.52311186  0.98289856    -0.13700
Br2277     Br  0.33168589  0.53090321  0.03854184    -0.05800
Br2278     Br  0.28962690  0.48872128  0.13500388    -0.00200
Br2279     Br  0.32408381  0.46663944  0.92572767     0.00300
Br2280     Br  0.30097555  0.54637132  0.00725501    -0.04100
Br2281     Br  0.33169177  0.53262417  0.13234574     0.00400
Br2282     Br  0.28970764  0.48797373  0.04012317    -0.03400
Br2283     Br  0.32147073  0.46890366  0.01922721    -0.04300
Br2284     Br  0.30088614  0.54274432  0.91334552    -0.00300
C2285       C  0.30879644  0.43037443  0.22467645     0.01100
C2286       C  0.31863477  0.41864964  0.22433342     0.03900
C2287       C  0.31831787  0.39923250  0.20957745    -0.12100
C2288       C  0.30810411  0.39125308  0.19634895     0.23200
C2289       C  0.29835363  0.40311781  0.19562487    -0.12700
C2290       C  0.29874857  0.42275780  0.20918532     0.04600
C2291       C  0.30765682  0.37034007  0.18331033     0.27100
C2292       C  0.30923031  0.36587511  0.14466106    -0.13400
C2293       C  0.30916738  0.34599433  0.13242095     0.05100
C2294       C  0.30755950  0.33047430  0.15891873    -0.09400
C2295       C  0.30596643  0.33499025  0.19764670     0.06000
C2296       C  0.30598197  0.35490930  0.20977251    -0.13700
Br2297     Br  0.28447025  0.39234087  0.17620732    -0.05800
Br2298     Br  0.33239750  0.42867593  0.24603349    -0.00200
Br2299     Br  0.31194689  0.34010825  0.07956528     0.00300
Br2300     Br  0.30373785  0.36117372  0.26268549    -0.04100
Br2301     Br  0.28566491  0.43951433  0.20485780     0.00400
Br2302     Br  0.33183978  0.38340078  0.20741917    -0.03400
Br2303     Br  0.31172435  0.38711168  0.10877478    -0.04300
Br2304     Br  0.30337701  0.31401638  0.23398699    -0.00300
C2305       C  0.43987787  0.57812771  0.56890533     0.01100
C2306       C  0.43249946  0.58852055  0.54479085     0.03900
C2307       C  0.43392198  0.60908010  0.53896427    -0.12100
C2308       C  0.44264589  0.61938113  0.55773142     0.23200
C2309       C  0.45034040  0.60877237  0.58049403    -0.12700
C2310       C  0.44895978  0.58817799  0.58598984     0.04600
C2311       C  0.44322857  0.64144716  0.55522757     0.27100
C2312       C  0.45106315  0.65077102  0.53099711    -0.13400
C2313       C  0.45079875  0.67155085  0.52619062     0.05100
C2314       C  0.44264186  0.68301622  0.54524712    -0.09400
C2315       C  0.43501774  0.67380554  0.57012312     0.06000
C2316       C  0.43544054  0.65312488  0.57569166    -0.13700
Br2317     Br  0.46251730  0.62258527  0.60522664    -0.05800
Br2318     Br  0.42028549  0.57458386  0.52066008    -0.00200
Br2319     Br  0.46107227  0.68421014  0.49138846     0.00300
Br2320     Br  0.42511077  0.64069221  0.61058505    -0.04100
Br2321     Br  0.45925901  0.57375690  0.61814376     0.00400
Br2322     Br  0.42377090  0.62329410  0.50590618    -0.03400
Br2323     Br  0.46176921  0.63500457  0.50295288    -0.04300
Br2324     Br  0.42358459  0.68949380  0.59481391    -0.00300
C2325       C  0.43654758  0.42852519  0.64023588     0.01100
C2326       C  0.44647252  0.42049191  0.65583693     0.03900
C2327       C  0.44651604  0.40104538  0.67071766    -0.12100
C2328       C  0.43662698  0.38948499  0.67012989     0.23200
C2329       C  0.42667054  0.39759148  0.65478221    -0.12700
C2330       C  0.42663827  0.41704962  0.63981625     0.04600
C2331       C  0.43667626  0.36911524  0.68696834     0.27100
C2332       C  0.43873424  0.35230908  0.66412237    -0.13400
C2333       C  0.43948097  0.33320891  0.68064809     0.05100
C2334       C  0.43843242  0.33081421  0.72046836    -0.09400
C2335       C  0.43604137  0.34772744  0.74305602     0.06000
C2336       C  0.43502874  0.36667881  0.72626001    -0.13700
Br2337     Br  0.41308830  0.38199539  0.65451860    -0.05800
Br2338     Br  0.45994975  0.43639070  0.65759109    -0.00200
Br2339     Br  0.44242963  0.31064902  0.64840678     0.00300
Br2340     Br  0.43120620  0.38951213  0.75686529    -0.04100
Br2341     Br  0.41311867  0.42784593  0.61765486     0.00400
Br2342     Br  0.46012346  0.39018303  0.69214524    -0.03400
Br2343     Br  0.44065015  0.35563933  0.61008145    -0.04300
Br2344     Br  0.43364013  0.34509304  0.79705530    -0.00300
C2345       C  0.34652377  0.50325905  0.72576286     0.01100
C2346       C  0.35017790  0.49125009  0.69523306     0.03900
C2347       C  0.36146791  0.49181933  0.68332836    -0.12100
C2348       C  0.36920366  0.50415741  0.70216722     0.23200
C2349       C  0.36579328  0.51501386  0.73435460    -0.12700
C2350       C  0.35449408  0.51449732  0.74624049     0.04600
C2351       C  0.38093911  0.50569813  0.68814141     0.27100
C2352       C  0.38917404  0.49252462  0.70179408    -0.13400
C2353       C  0.40034827  0.49407976  0.68907019     0.05100
C2354       C  0.40340353  0.50914694  0.66285486    -0.09400
C2355       C  0.39506274  0.52224337  0.64895961     0.06000
C2356       C  0.38384765  0.52037602  0.66135146    -0.13700
Br2357     Br  0.37659734  0.53102707  0.76135104    -0.05800
Br2358     Br  0.33972198  0.47490714  0.66782518    -0.00200
Br2359     Br  0.41144149  0.47605598  0.70978686     0.00300
Br2360     Br  0.37237615  0.53788623  0.64172090    -0.04100
Br2361     Br  0.34994108  0.52892552  0.79101376     0.00400
Br2362     Br  0.36632054  0.47637787  0.64010708    -0.03400
Br2363     Br  0.38507377  0.47258912  0.73873836    -0.04300
Br2364     Br  0.39883268  0.54237010  0.61200851    -0.00300
C2365       C  0.44060511  0.57639748  0.05584556     0.01100
C2366       C  0.45050094  0.58580494  0.06865339     0.03900
C2367       C  0.45173922  0.60655245  0.06493854    -0.12100
C2368       C  0.44330197  0.61785243  0.04693776     0.23200
C2369       C  0.43382227  0.60821748  0.03148125    -0.12700
C2370       C  0.43241271  0.58757987  0.03632436     0.04600
C2371       C  0.44398589  0.63993514  0.04585888     0.27100
C2372       C  0.43965535  0.65123082  0.07631986    -0.13400
C2373       C  0.43886528  0.67207773  0.07334462     0.05100
C2374       C  0.44234999  0.68163658  0.03981238    -0.09400
C2375       C  0.44720505  0.67045407  0.01015614     0.06000
C2376       C  0.44810056  0.64966596  0.01328759    -0.13700
Br2377     Br  0.42253737  0.62355355  0.00510401    -0.05800
Br2378     Br  0.46210900  0.57037279  0.09308166    -0.00200
Br2379     Br  0.43230802  0.68740637  0.11396314     0.00300
Br2380     Br  0.45464266  0.63440573  0.97255480    -0.04100
Br2381     Br  0.41926711  0.57456302  0.01625482     0.00400
Br2382     Br  0.46464386  0.61972681  0.08642230    -0.03400
Br2383     Br  0.43435959  0.63796556  0.12143043    -0.04300
Br2384     Br  0.45248454  0.68371346  0.96487545    -0.00300
C2385       C  0.44019660  0.50283611  0.74923680     0.01100
C2386       C  0.43207741  0.51198173  0.77291953     0.03900
C2387       C  0.43253665  0.50943135  0.81239277    -0.12100
C2388       C  0.44078020  0.49710440  0.82863967     0.23200
C2389       C  0.44877891  0.48761032  0.80526746    -0.12700
C2390       C  0.44856578  0.49062539  0.76559110     0.04600
C2391       C  0.44092664  0.49467858  0.87051966     0.27100
C2392       C  0.44768774  0.50724628  0.89277108    -0.13400
C2393       C  0.44656214  0.50732472  0.93255193     0.05100
C2394       C  0.43868362  0.49458903  0.95047185    -0.09400
C2395       C  0.43205731  0.48173479  0.92795109     0.06000
C2396       C  0.43317574  0.48183137  0.88814179    -0.13700
Br2397     Br  0.46006068  0.47074084  0.82785204    -0.05800
Br2398     Br  0.41980868  0.52732045  0.75182766    -0.00200
Br2399     Br  0.45628892  0.52444263  0.96191961     0.00300
Br2400     Br  0.42382043  0.46485777  0.85726524    -0.04100
Br2401     Br  0.46006497  0.47889738  0.73414218     0.00400
Br2402     Br  0.42189319  0.52311384  0.84466917    -0.03400
Br2403     Br  0.45835906  0.52468449  0.86832617    -0.04300
Br2404     Br  0.42095811  0.46469830  0.95114700    -0.00300
C2405       C  0.43655412  0.51160496  0.24866957     0.01100
C2406       C  0.42804414  0.52184073  0.26902645     0.03900
C2407       C  0.42771244  0.52101123  0.30893989    -0.12100
C2408       C  0.43553832  0.50932105  0.32889855     0.23200
C2409       C  0.44369061  0.49834592  0.30878220    -0.12700
C2410       C  0.44437264  0.49979611  0.26887631     0.04600
C2411       C  0.43485641  0.50792592  0.37099171     0.27100
C2412       C  0.44182953  0.51979671  0.39404553    -0.13400
C2413       C  0.44138923  0.51796360  0.43387724     0.05100
C2414       C  0.43377297  0.50450610  0.45087968    -0.09400
C2415       C  0.42651405  0.49320227  0.42771083     0.06000
C2416       C  0.42714675  0.49475120  0.38791748    -0.13700
Br2417     Br  0.45364284  0.48076274  0.33611749    -0.05800
Br2418     Br  0.41616296  0.53581110  0.24267078    -0.00200
Br2419     Br  0.45185661  0.53286989  0.46468196     0.00300
Br2420     Br  0.41762025  0.47850336  0.35626763    -0.04100
Br2421     Br  0.45631359  0.48614521  0.24246764     0.00400
Br2422     Br  0.41627664  0.53539542  0.33658739    -0.03400
Br2423     Br  0.45213460  0.53830220  0.37084905    -0.04300
Br2424     Br  0.41549690  0.47587065  0.45046404    -0.00300
C2425       C  0.44031836  0.33474160  0.23656476     0.01100
C2426       C  0.45014606  0.34640849  0.23242638     0.03900
C2427       C  0.44943916  0.36565384  0.21690445    -0.12100
C2428       C  0.43901154  0.37318536  0.20463730     0.23200
C2429       C  0.42919722  0.36179705  0.20919550    -0.12700
C2430       C  0.42981185  0.34270719  0.22534572     0.04600
C2431       C  0.43841354  0.39299281  0.18626919     0.27100
C2432       C  0.43570958  0.40988278  0.20783031    -0.13400
C2433       C  0.43570561  0.42882837  0.19081765     0.05100
C2434       C  0.43799827  0.43095152  0.15141359    -0.09400
C2435       C  0.44010512  0.41359138  0.12958340     0.06000
C2436       C  0.44064033  0.39485132  0.14725053    -0.13700
Br2437     Br  0.41487331  0.37261808  0.19368293    -0.05800
Br2438     Br  0.46473546  0.33594280  0.24594074    -0.00200
Br2439     Br  0.43325679  0.45143735  0.22321776     0.00300
Br2440     Br  0.44456925  0.37150488  0.11818184    -0.04100
Br2441     Br  0.41606147  0.32816617  0.23400317     0.00400
Br2442     Br  0.46273751  0.38192638  0.21235502    -0.03400
Br2443     Br  0.43225546  0.40687654  0.26117325    -0.04300
Br2444     Br  0.44159001  0.41474618  0.07492810    -0.00300
C2445       C  0.40221769  0.51024941  0.15157419     0.01100
C2446       C  0.39389303  0.52206105  0.13386787     0.03900
C2447       C  0.38261535  0.52112644  0.14623951    -0.12100
C2448       C  0.37957057  0.50836903  0.17625440     0.23200
C2449       C  0.38772033  0.49612075  0.19314664    -0.12700
C2450       C  0.39897703  0.49706581  0.18103255     0.04600
C2451       C  0.36787270  0.50815229  0.19104156     0.27100
C2452       C  0.36498233  0.52002765  0.22252987    -0.13400
C2453       C  0.35393330  0.51981100  0.23676481     0.05100
C2454       C  0.34569718  0.50777962  0.21946825    -0.09400
C2455       C  0.34869772  0.49536443  0.18869608     0.06000
C2456       C  0.35976555  0.49560330  0.17453877    -0.13700
Br2457     Br  0.38339563  0.47847249  0.23396780    -0.05800
Br2458     Br  0.39782617  0.53917731  0.09200291    -0.00200
Br2459     Br  0.35009772  0.53576793  0.28045463     0.00300
Br2460     Br  0.36382972  0.47913476  0.13184670    -0.04100
Br2461     Br  0.40990957  0.48124140  0.20755844     0.00400
Br2462     Br  0.37128367  0.53753543  0.12267865    -0.03400
Br2463     Br  0.37616999  0.53684993  0.24570146    -0.04300
Br2464     Br  0.33755540  0.47897965  0.16396643    -0.00300
C2465       C  0.22109996  0.51278761  0.91259661     0.01100
C2466       C  0.22327794  0.52029639  0.87555035     0.03900
C2467       C  0.23394205  0.51789855  0.85887770    -0.12100
C2468       C  0.24258374  0.50818941  0.87882797     0.23200
C2469       C  0.24052428  0.50076083  0.91561780    -0.12700
C2470       C  0.22982444  0.50299525  0.93246260     0.04600
C2471       C  0.25384612  0.50590844  0.86086810     0.27100
C2472       C  0.25671956  0.48814523  0.84226869    -0.13400
C2473       C  0.26746649  0.48579823  0.82587160     0.05100
C2474       C  0.27551703  0.50145269  0.82773333    -0.09400
C2475       C  0.27192356  0.52015094  0.84247012     0.06000
C2476       C  0.26135702  0.52199940  0.86024981    -0.13700
Br2477     Br  0.25245832  0.48754753  0.94283796    -0.05800
Br2478     Br  0.21165392  0.53303697  0.84572328    -0.00200
Br2479     Br  0.27054132  0.46129643  0.79904382     0.00300
Br2480     Br  0.25711411  0.54663681  0.88467271    -0.04100
Br2481     Br  0.22737162  0.49337192  0.98340320     0.00400
Br2482     Br  0.23675196  0.52754824  0.80800229    -0.03400
Br2483     Br  0.24574843  0.46703629  0.83938016    -0.04300
Br2484     Br  0.28079229  0.54404067  0.83765018    -0.00300
C2485       C  0.22141345  0.50709423  0.41614229     0.01100
C2486       C  0.22928849  0.49402127  0.43294488     0.03900
C2487       C  0.23978827  0.49074532  0.41536780    -0.12100
C2488       C  0.24242488  0.50043572  0.38104154     0.23200
C2489       C  0.23439850  0.51251684  0.36315189    -0.12700
C2490       C  0.22397450  0.51598752  0.38060415     0.04600
C2491       C  0.25386411  0.49907712  0.36465604     0.27100
C2492       C  0.26211446  0.51278064  0.37610852    -0.13400
C2493       C  0.27297194  0.51192752  0.36046495     0.05100
C2494       C  0.27557258  0.49747664  0.33250030    -0.09400
C2495       C  0.26707422  0.48438944  0.31985131     0.06000
C2496       C  0.25629195  0.48506264  0.33619976    -0.13700
Br2497     Br  0.23771593  0.52397488  0.31403899    -0.05800
Br2498     Br  0.22596640  0.48113746  0.48056095    -0.00200
Br2499     Br  0.28429985  0.52977657  0.38017424     0.00300
Br2500     Br  0.24476801  0.46683874  0.31975644    -0.04100
Br2501     Br  0.21313599  0.53223562  0.35389621     0.00400
Br2502     Br  0.25058999  0.47281382  0.43771718    -0.03400
Br2503     Br  0.25846844  0.53267586  0.41371945    -0.04300
Br2504     Br  0.27000070  0.46593172  0.27919785    -0.00300
C2505       C  0.18709999  0.49831631  0.63575936     0.01100
C2506       C  0.17870002  0.48778263  0.65615194     0.03900
C2507       C  0.17844190  0.48848891  0.69594327    -0.12100
C2508       C  0.18611425  0.50051986  0.71566217     0.23200
C2509       C  0.19415082  0.51174874  0.69558133    -0.12700
C2510       C  0.19477547  0.51042676  0.65571637     0.04600
C2511       C  0.18554989  0.50141310  0.75760351     0.27100
C2512       C  0.17712048  0.51282024  0.77529470    -0.13400
C2513       C  0.17616672  0.51285775  0.81503515     0.05100
C2514       C  0.18409734  0.50252491  0.83738973    -0.09400
C2515       C  0.19240629  0.49069733  0.81952066     0.06000
C2516       C  0.19305136  0.49006851  0.77968056    -0.13700
Br2517     Br  0.20426113  0.52897270  0.72294447    -0.05800
Br2518     Br  0.16691581  0.47327722  0.63029944    -0.00200
Br2519     Br  0.16373851  0.52651645  0.83877459     0.00300
Br2520     Br  0.20451392  0.47429337  0.75514555    -0.04100
Br2521     Br  0.20646582  0.52455707  0.62903904     0.00400
Br2522     Br  0.16755429  0.47288813  0.72381168    -0.03400
Br2523     Br  0.16721372  0.52910559  0.74495030    -0.04300
Br2524     Br  0.20350986  0.47637761  0.84890945    -0.00300
C2525       C  0.18389257  0.50836619  0.33714779     0.01100
C2526       C  0.17773096  0.52304095  0.31714821     0.03900
C2527       C  0.17777022  0.52332693  0.27718855    -0.12100
C2528       C  0.18337360  0.50829949  0.25680147     0.23200
C2529       C  0.18862479  0.49261705  0.27652267    -0.12700
C2530       C  0.18919912  0.49290383  0.31647632     0.04600
C2531       C  0.18395303  0.50916895  0.21464459     0.27100
C2532       C  0.17448097  0.50424321  0.19275311    -0.13400
C2533       C  0.17501812  0.50536901  0.15298798     0.05100
C2534       C  0.18534894  0.50916610  0.13444101    -0.09400
C2535       C  0.19487756  0.51397774  0.15646610     0.06000
C2536       C  0.19400922  0.51489575  0.19639692    -0.13700
Br2537     Br  0.19518804  0.47085604  0.24843036    -0.05800
Br2538     Br  0.16885213  0.54252384  0.34410205    -0.00200
Br2539     Br  0.16132636  0.50288305  0.12437681     0.00300
Br2540     Br  0.20658273  0.52391259  0.22637944    -0.04100
Br2541     Br  0.19816934  0.47293033  0.34175643     0.00400
Br2542     Br  0.17043758  0.54471461  0.25020419    -0.03400
Br2543     Br  0.16084758  0.49530257  0.21720936    -0.04300
Br2544     Br  0.20932202  0.51759360  0.13269025    -0.00300
C2545       C  0.15274818  0.50060727  0.54154062     0.01100
C2546       C  0.14983539  0.51422738  0.57061340     0.03900
C2547       C  0.13858624  0.51585599  0.58296308    -0.12100
C2548       C  0.13017809  0.50382518  0.56672750     0.23200
C2549       C  0.13302789  0.49053270  0.53729742    -0.12700
C2550       C  0.14421448  0.48917500  0.52429971     0.04600
C2551       C  0.11829141  0.50511269  0.58014160     0.27100
C2552       C  0.11459952  0.49333778  0.61081722    -0.13400
C2553       C  0.10309036  0.49268600  0.62041215     0.05100
C2554       C  0.09514863  0.50355930  0.59902903    -0.09400
C2555       C  0.09898476  0.51650768  0.57006810     0.06000
C2556       C  0.11051536  0.51722083  0.56071244    -0.13700
Br2557     Br  0.12157406  0.47374814  0.51553545    -0.05800
Br2558     Br  0.16125396  0.52999369  0.59541332    -0.00200
Br2559     Br  0.09819635  0.47724766  0.66352527     0.00300
Br2560     Br  0.11570026  0.53412717  0.52004413    -0.04100
Br2561     Br  0.14773263  0.47233521  0.48156458     0.00400
Br2562     Br  0.13467783  0.53418554  0.62294890    -0.03400
Br2563     Br  0.12530283  0.47749634  0.63869999    -0.04300
Br2564     Br  0.08849156  0.53237409  0.54112955    -0.00300
C2565       C  0.05622454  0.51104228  0.79020331     0.01100
C2566       C  0.06579464  0.50451960  0.81024763     0.03900
C2567       C  0.06566721  0.50416699  0.85026112    -0.12100
C2568       C  0.05599136  0.51043043  0.87013317     0.23200
C2569       C  0.04652713  0.51725934  0.85013156    -0.12700
C2570       C  0.04660082  0.51743550  0.81031389     0.04600
C2571       C  0.05563071  0.50961537  0.91211323     0.27100
C2572       C  0.05047492  0.49338632  0.93025393    -0.13400
C2573       C  0.05043751  0.49218623  0.97005878     0.05100
C2574       C  0.05563840  0.50721440  0.99199039    -0.09400
C2575       C  0.06010572  0.52417831  0.97368513     0.06000
C2576       C  0.06006794  0.52532942  0.93377974    -0.13700
Br2577     Br  0.03352603  0.52673205  0.87761275    -0.05800
Br2578     Br  0.07922570  0.49715811  0.78297524    -0.00200
Br2579     Br  0.04300718  0.47000240  0.99429492     0.00300
Br2580     Br  0.06617178  0.54834287  0.90841297    -0.04100
Br2581     Br  0.03334939  0.52625556  0.78357696     0.00400
Br2582     Br  0.07878069  0.49556474  0.87804076    -0.03400
Br2583     Br  0.04346832  0.47277763  0.90031440    -0.04300
Br2584     Br  0.06692889  0.54541476  0.00244565    -0.00300
C2585       C  0.06287655  0.49976937  0.49139052     0.01100
C2586       C  0.05471564  0.50979930  0.46933751     0.03900
C2587       C  0.05597474  0.51117836  0.42950881    -0.12100
C2588       C  0.06509540  0.50178222  0.41118983     0.23200
C2589       C  0.07309735  0.49141207  0.43294972    -0.12700
C2590       C  0.07218811  0.49083753  0.47281281     0.04600
C2591       C  0.06613725  0.50230164  0.36895112     0.27100
C2592       C  0.05983276  0.48904789  0.34648411    -0.13400
C2593       C  0.06036252  0.49008397  0.30653717     0.05100
C2594       C  0.06749636  0.50407640  0.28864622    -0.09400
C2595       C  0.07437823  0.51640663  0.31132340     0.06000
C2596       C  0.07351234  0.51583070  0.35125907    -0.13700
Br2597     Br  0.08519026  0.47750507  0.40774104    -0.05800
Br2598     Br  0.04131805  0.52019572  0.49291359    -0.00200
Br2599     Br  0.05052077  0.47332542  0.27689639     0.00300
Br2600     Br  0.08208448  0.53412869  0.38187940    -0.04100
Br2601     Br  0.08411659  0.47835422  0.50156477     0.00400
Br2602     Br  0.04511392  0.52567402  0.39963466    -0.03400
Br2603     Br  0.05017918  0.46981850  0.37073564    -0.04300
Br2604     Br  0.08522742  0.53376452  0.28768920    -0.00300
C2605       C  0.15305450  0.49974043  0.02748994     0.01100
C2606       C  0.14734457  0.48449382  0.04774414     0.03900
C2607       C  0.13592100  0.48669473  0.05705064    -0.12100
C2608       C  0.12986660  0.50339849  0.04453524     0.23200
C2609       C  0.13533331  0.51825315  0.02328462    -0.12700
C2610       C  0.14689832  0.51652293  0.01486889     0.04600
C2611       C  0.11765141  0.50478564  0.05318809     0.27100
C2612       C  0.10983125  0.49535120  0.02923795    -0.13400
C2613       C  0.09840037  0.49460532  0.03945241     0.05100
C2614       C  0.09474106  0.50276479  0.07435928    -0.09400
C2615       C  0.10255510  0.51262710  0.09787863     0.06000
C2616       C  0.11396532  0.51376089  0.08713167    -0.13700
Br2617     Br  0.12692139  0.54112465  0.00642315    -0.05800
Br2618     Br  0.15498979  0.46073613  0.06531384    -0.00200
Br2619     Br  0.08774145  0.48263549  0.00498677     0.00300
Br2620     Br  0.12474587  0.52671695  0.11967297    -0.04100
Br2621     Br  0.15400530  0.53672366  0.98422857     0.00400
Br2622     Br  0.12855144  0.46716733  0.08869386    -0.03400
Br2623     Br  0.11493764  0.48265414  0.98318445    -0.04300
Br2624     Br  0.09788212  0.52327694  0.14609065    -0.00300
C2625       C  0.22866875  0.75001899  0.69333866     0.01100
C2626       C  0.23113840  0.76564692  0.71895104     0.03900
C2627       C  0.24203903  0.76771197  0.73375004    -0.12100
C2628       C  0.25040322  0.75372432  0.72465944     0.23200
C2629       C  0.24815009  0.73863938  0.69801477    -0.12700
C2630       C  0.23735243  0.73702297  0.68180596     0.04600
C2631       C  0.26149612  0.75507880  0.74371527     0.27100
C2632       C  0.27015686  0.76613038  0.72682250    -0.13400
C2633       C  0.28006202  0.77010295  0.74720714     0.05100
C2634       C  0.28161259  0.76213984  0.78421670    -0.09400
C2635       C  0.27314554  0.75000999  0.80009567     0.06000
C2636       C  0.26300239  0.74693742  0.78025793    -0.13700
Br2637     Br  0.25983024  0.72006164  0.68443661    -0.05800
Br2638     Br  0.21952601  0.78334119  0.73716015    -0.00200
Br2639     Br  0.29152025  0.78599253  0.72290221     0.00300
Br2640     Br  0.25098632  0.73193295  0.80329712    -0.04100
Br2641     Br  0.23454110  0.71739769  0.64305590     0.00400
Br2642     Br  0.24554687  0.78951558  0.76743652    -0.03400
Br2643     Br  0.26835209  0.77577833  0.67547577    -0.04300
Br2644     Br  0.27519162  0.73808006  0.84945085    -0.00300
C2645       C  0.19521206  0.67644995  0.60136114     0.01100
C2646       C  0.19677084  0.67217890  0.56237389     0.03900
C2647       C  0.19631018  0.65235761  0.54920813    -0.12100
C2648       C  0.19403708  0.63666274  0.57461076     0.23200
C2649       C  0.19250349  0.64084599  0.61345073    -0.12700
C2650       C  0.19315024  0.66058604  0.62683687     0.04600
C2651       C  0.19310465  0.61578476  0.56044196     0.27100
C2652       C  0.18259764  0.60821345  0.54880713    -0.13400
C2653       C  0.18173434  0.58868664  0.53450063     0.05100
C2654       C  0.19134502  0.57642426  0.53238676    -0.09400
C2655       C  0.20180805  0.58383139  0.54498450     0.06000
C2656       C  0.20269550  0.60348288  0.55863613    -0.13700
Br2657     Br  0.18940851  0.61935138  0.64819857    -0.05800
Br2658     Br  0.19996670  0.69329679  0.52693237    -0.00200
Br2659     Br  0.16749983  0.57918612  0.51552083     0.00300
Br2660     Br  0.21707556  0.61373724  0.57454925    -0.04100
Br2661     Br  0.19061373  0.66583419  0.68003119     0.00400
Br2662     Br  0.19893969  0.64650727  0.49631961    -0.03400
Br2663     Br  0.16940479  0.62480065  0.55208324    -0.04300
Br2664     Br  0.21488718  0.56683136  0.54467191    -0.00300
C2665       C  0.27750025  0.75974137  0.29393415     0.01100
C2666       C  0.26962231  0.74613712  0.30888847     0.03900
C2667       C  0.25942193  0.74235534  0.28945245    -0.12100
C2668       C  0.25673197  0.75284454  0.25592178     0.23200
C2669       C  0.26450107  0.76658463  0.24118700    -0.12700
C2670       C  0.27490384  0.76967939  0.25944173     0.04600
C2671       C  0.24546947  0.75047506  0.23738041     0.27100
C2672       C  0.24385728  0.73683361  0.20747608    -0.13400
C2673       C  0.23321220  0.73500578  0.18978232     0.05100
C2674       C  0.22408672  0.74711388  0.20131923    -0.09400
C2675       C  0.22579815  0.76074652  0.23153151     0.06000
C2676       C  0.23638151  0.76230568  0.24940826    -0.13700
Br2677     Br  0.26078810  0.78133646  0.19581279    -0.05800
Br2678     Br  0.27239015  0.73380634  0.35733457    -0.00200
Br2679     Br  0.23123718  0.71594692  0.14955595     0.00300
Br2680     Br  0.23842833  0.78027927  0.29161444    -0.04100
Br2681     Br  0.28570809  0.78695456  0.23530612     0.00400
Br2682     Br  0.24904959  0.72276399  0.30851204    -0.03400
Br2683     Br  0.25626882  0.72038943  0.19147057    -0.04300
Br2684     Br  0.21352157  0.77639449  0.25130317    -0.00300
C2685       C  0.19350156  0.75184316  0.78829603     0.01100
C2686       C  0.18600883  0.76626760  0.80315830     0.03900
C2687       C  0.18536818  0.76949693  0.84267551    -0.12100
C2688       C  0.19195650  0.75809908  0.86776845     0.23200
C2689       C  0.19969573  0.74423487  0.85316211    -0.12700
C2690       C  0.20063149  0.74134829  0.81364472     0.04600
C2691       C  0.19064081  0.76046398  0.90959400     0.27100
C2692       C  0.19784773  0.77318236  0.93002439    -0.13400
C2693       C  0.19691657  0.77463550  0.96985072     0.05100
C2694       C  0.18869685  0.76346783  0.98938145    -0.09400
C2695       C  0.18104301  0.75173874  0.96861198     0.06000
C2696       C  0.18214168  0.74995126  0.92894381    -0.13700
Br2697     Br  0.20907700  0.72927970  0.88765165    -0.05800
Br2698     Br  0.17619577  0.78124347  0.77012770    -0.00200
Br2699     Br  0.20702659  0.79169772  0.99758118     0.00300
Br2700     Br  0.17200588  0.73306741  0.90095160    -0.04100
Br2701     Br  0.21233092  0.72400587  0.79472374     0.00400
Br2702     Br  0.17549226  0.78966385  0.86286390    -0.03400
Br2703     Br  0.20894705  0.78862972  0.90315273    -0.04300
Br2704     Br  0.16853133  0.73931943  0.99422637    -0.00300
C2705       C  0.18961094  0.74372092  0.28688562     0.01100
C2706       C  0.19730676  0.73190089  0.30789235     0.03900
C2707       C  0.19782616  0.73353785  0.34769923    -0.12100
C2708       C  0.19103903  0.74746709  0.36668241     0.23200
C2709       C  0.18355382  0.75951569  0.34594538    -0.12700
C2710       C  0.18263678  0.75734613  0.30631405     0.04600
C2711       C  0.19151450  0.74909050  0.40866364     0.27100
C2712       C  0.18394868  0.73809510  0.43099231    -0.13400
C2713       C  0.18388595  0.74043868  0.47061815     0.05100
C2714       C  0.19180947  0.75286160  0.48851018    -0.09400
C2715       C  0.19941606  0.76388409  0.46605154     0.06000
C2716       C  0.19914004  0.76222029  0.42615088    -0.13700
Br2717     Br  0.17463899  0.77916223  0.37216443    -0.05800
Br2718     Br  0.20776705  0.71426775  0.28271009    -0.00200
Br2719     Br  0.17201540  0.72855869  0.49958936     0.00300
Br2720     Br  0.20881634  0.77848773  0.39508608    -0.04100
Br2721     Br  0.17130474  0.77223266  0.27930937     0.00400
Br2722     Br  0.20792438  0.71685948  0.37656603    -0.03400
Br2723     Br  0.17335895  0.72037558  0.40696687    -0.04300
Br2724     Br  0.21011425  0.78144490  0.48979590    -0.00300
C2725       C  0.18923977  0.58091419  0.01883836     0.01100
C2726       C  0.18625233  0.59699641  0.99501999     0.03900
C2727       C  0.18673356  0.61665320  0.00876208    -0.12100
C2728       C  0.18975293  0.62038148  0.04683769     0.23200
C2729       C  0.19261185  0.60433233  0.07073861    -0.12700
C2730       C  0.19272650  0.58478243  0.05641722     0.04600
C2731       C  0.18999729  0.64119931  0.06142364     0.27100
C2732       C  0.20032262  0.65119575  0.06590033    -0.13400
C2733       C  0.20052226  0.67116483  0.07792277     0.05100
C2734       C  0.19041118  0.68122473  0.08671354    -0.09400
C2735       C  0.18005029  0.67123752  0.08164852     0.06000
C2736       C  0.17987185  0.65126979  0.06944336    -0.13700
Br2737     Br  0.19624914  0.60910833  0.12334285    -0.05800
Br2738     Br  0.18111664  0.59220870  0.94381325    -0.00200
Br2739     Br  0.21468651  0.68509101  0.07957805     0.00300
Br2740     Br  0.16574762  0.63732639  0.06489901    -0.04100
Br2741     Br  0.19862290  0.56363229  0.08742061     0.00400
Br2742     Br  0.18331295  0.63860683  0.97534446    -0.03400
Br2743     Br  0.21425833  0.63743097  0.05586640    -0.04300
Br2744     Br  0.16601284  0.68442567  0.09244436    -0.00300
C2745       C  0.05816954  0.58050410  0.10336882     0.01100
C2746       C  0.06801954  0.59097871  0.09344531     0.03900
C2747       C  0.06734309  0.61098862  0.08192681    -0.12100
C2748       C  0.05678410  0.62019872  0.07714916     0.23200
C2749       C  0.04690421  0.60956689  0.08574718    -0.12700
C2750       C  0.04760173  0.59001049  0.09996898     0.04600
C2751       C  0.05614581  0.64067531  0.06118389     0.27100
C2752       C  0.05392974  0.65712014  0.08484741    -0.13400
C2753       C  0.05367906  0.67646770  0.06949557     0.05100
C2754       C  0.05633815  0.67962531  0.03084918    -0.09400
C2755       C  0.05855057  0.66309392  0.00724895     0.06000
C2756       C  0.05808210  0.64369967  0.02213619    -0.13700
Br2757     Br  0.03241580  0.62171320  0.07713964    -0.05800
Br2758     Br  0.08253215  0.57819656  0.09649292    -0.00200
Br2759     Br  0.04886999  0.69831473  0.10097133     0.00300
Br2760     Br  0.05997483  0.62109723  0.98896577    -0.04100
Br2761     Br  0.03398531  0.57609360  0.11340469     0.00400
Br2762     Br  0.08091194  0.62610857  0.07376050    -0.03400
Br2763     Br  0.05133359  0.65313861  0.13839535    -0.04300
Br2764     Br  0.06290974  0.66686220  0.95490623    -0.00300
C2765       C  0.15265868  0.75933555  0.09082226     0.01100
C2766       C  0.14684357  0.77246199  0.06595548     0.03900
C2767       C  0.13515036  0.77066940  0.06059933    -0.12100
C2768       C  0.12912240  0.75532981  0.07846715     0.23200
C2769       C  0.13486248  0.74171148  0.10190915    -0.12700
C2770       C  0.14651330  0.74393500  0.10881918     0.04600
C2771       C  0.11671293  0.75396133  0.07248829     0.27100
C2772       C  0.10934461  0.76462760  0.09625917    -0.13400
C2773       C  0.09776315  0.76546837  0.08791001     0.05100
C2774       C  0.09351361  0.75668014  0.05427085    -0.09400
C2775       C  0.10088373  0.74554604  0.03103332     0.06000
C2776       C  0.11238022  0.74385831  0.04063732    -0.13700
Br2777     Br  0.12668421  0.71989486  0.12415948    -0.05800
Br2778     Br  0.15474066  0.79243732  0.03680156    -0.00200
Br2779     Br  0.08773187  0.77815961  0.12367461     0.00300
Br2780     Br  0.12241059  0.72837652  0.00938576    -0.04100
Br2781     Br  0.15369818  0.72657263  0.14501716     0.00400
Br2782     Br  0.12723721  0.78924098  0.02827602    -0.03400
Br2783     Br  0.11527154  0.77898911  0.13925705    -0.04300
Br2784     Br  0.09556319  0.73393262  0.98437528    -0.00300
C2785       C  0.06542082  0.75388134  0.84327511     0.01100
C2786       C  0.06318271  0.77234279  0.82504490     0.03900
C2787       C  0.06275022  0.77337650  0.78503698    -0.12100
C2788       C  0.06583805  0.75683061  0.76291217     0.23200
C2789       C  0.06982532  0.73955393  0.78092042    -0.12700
C2790       C  0.06962658  0.73802584  0.82081777     0.04600
C2791       C  0.06567766  0.75796346  0.72065946     0.27100
C2792       C  0.05654697  0.75012212  0.69999609    -0.13400
C2793       C  0.05658892  0.75060104  0.65993742     0.05100
C2794       C  0.06583586  0.75879438  0.64026588    -0.09400
C2795       C  0.07503378  0.76648732  0.66116100     0.06000
C2796       C  0.07489528  0.76617538  0.70113431    -0.13700
Br2797     Br  0.07567584  0.71803007  0.75050986    -0.05800
Br2798     Br  0.06196339  0.79693808  0.85314252    -0.00200
Br2799     Br  0.04370275  0.74092014  0.63227613     0.00300
Br2800     Br  0.08742192  0.77679517  0.72947915    -0.04100
Br2801     Br  0.07642859  0.71500674  0.84432719     0.00400
Br2802     Br  0.05778389  0.79742738  0.76022505    -0.03400
Br2803     Br  0.04395023  0.73883041  0.72685911    -0.04300
Br2804     Br  0.08817779  0.77668260  0.63542370    -0.00300
C2805       C  0.05965061  0.74724127  0.34217406     0.01100
C2806       C  0.04998074  0.74063990  0.32258434     0.03900
C2807       C  0.04918429  0.74294846  0.28306952    -0.12100
C2808       C  0.05799284  0.75204065  0.26286172     0.23200
C2809       C  0.06744995  0.75942346  0.28248357    -0.12700
C2810       C  0.06831213  0.75692145  0.32208880     0.04600
C2811       C  0.05743502  0.75312598  0.22086427     0.27100
C2812       C  0.06388593  0.73990894  0.19874076    -0.13400
C2813       C  0.06365480  0.74127230  0.15893856     0.05100
C2814       C  0.05619877  0.75467467  0.14102945    -0.09400
C2815       C  0.04915039  0.76686334  0.16327905     0.06000
C2816       C  0.05020200  0.76684588  0.20302837    -0.13700
Br2817     Br  0.07915428  0.77307652  0.25495977    -0.05800
Br2818     Br  0.03752170  0.72901448  0.34962984    -0.00200
Br2819     Br  0.07432974  0.72600213  0.12957117     0.00300
Br2820     Br  0.04210065  0.78612642  0.23301985    -0.04100
Br2821     Br  0.08154265  0.76602233  0.34853035     0.00400
Br2822     Br  0.03599724  0.73354502  0.25648952    -0.03400
Br2823     Br  0.07315816  0.72006494  0.22305407    -0.04300
Br2824     Br  0.03771614  0.78292377  0.13939878    -0.00300
C2825       C  0.06024951  0.67947052  0.53809251     0.01100
C2826       C  0.05032812  0.67104126  0.55296298     0.03900
C2827       C  0.05039907  0.65139332  0.56662422    -0.12100
C2828       C  0.06037540  0.64010810  0.56553149     0.23200
C2829       C  0.07039018  0.64873463  0.55205160    -0.12700
C2830       C  0.07035973  0.66843177  0.53860811     0.04600
C2831       C  0.06019993  0.61900574  0.57771482     0.27100
C2832       C  0.06113741  0.61410764  0.61643724    -0.13400
C2833       C  0.05996932  0.59422034  0.62823156     0.05100
C2834       C  0.05816592  0.57905553  0.60113343    -0.09400
C2835       C  0.05799351  0.58391511  0.56213344     0.06000
C2836       C  0.05873722  0.60388093  0.55055702    -0.13700
Br2837     Br  0.08407549  0.63331835  0.55131960    -0.05800
Br2838     Br  0.03675199  0.68665943  0.55628468    -0.00200
Br2839     Br  0.06147936  0.58773735  0.68139510     0.00300
Br2840     Br  0.05749921  0.61067699  0.49745780    -0.04100
Br2841     Br  0.08411481  0.67988345  0.51939018     0.00400
Br2842     Br  0.03679943  0.63971819  0.58648123    -0.03400
Br2843     Br  0.06411230  0.63477412  0.65305992    -0.04300
Br2844     Br  0.05653701  0.56344038  0.52427128    -0.00300
C2845       C  0.09946099  0.75191971  0.53533123     0.01100
C2846       C  0.10255209  0.73963236  0.56625847     0.03900
C2847       C  0.11383786  0.73871365  0.57827083    -0.12100
C2848       C  0.12223327  0.74910721  0.55828497     0.23200
C2849       C  0.11930649  0.76020684  0.52577341    -0.12700
C2850       C  0.10794398  0.76185506  0.51462843     0.04600
C2851       C  0.13398164  0.74948878  0.57302925     0.27100
C2852       C  0.13759152  0.76556409  0.59546906    -0.13400
C2853       C  0.14882563  0.76658522  0.60792743     0.05100
C2854       C  0.15662308  0.75158486  0.59780605    -0.09400
C2855       C  0.15240359  0.73389005  0.58110282     0.06000
C2856       C  0.14133096  0.73340406  0.56670322    -0.13700
Br2857     Br  0.13089193  0.77379940  0.49757895    -0.05800
Br2858     Br  0.09130890  0.72507937  0.59442119    -0.00200
Br2859     Br  0.15311225  0.78744743  0.64249894     0.00300
Br2860     Br  0.13629933  0.71099258  0.53709680    -0.04100
Br2861     Br  0.10401956  0.77769021  0.47089909     0.00400
Br2862     Br  0.11771490  0.72452673  0.62410227    -0.03400
Br2863     Br  0.12708531  0.78630476  0.60883184    -0.04300
Br2864     Br  0.16096833  0.70947545  0.58134761    -0.00300
C2865       C  0.27608259  0.25832780  0.05702603     0.01100
C2866       C  0.27433237  0.24297039  0.03010789     0.03900
C2867       C  0.26378648  0.24067709  0.01246913    -0.12100
C2868       C  0.25492179  0.25380617  0.02086878     0.23200
C2869       C  0.25649264  0.26882692  0.04821973    -0.12700
C2870       C  0.26703389  0.27115158  0.06614765     0.04600
C2871       C  0.24382966  0.25109848  0.00190450     0.27100
C2872       C  0.24155795  0.26009543  0.96651492    -0.13400
C2873       C  0.23126896  0.25644452  0.94772099     0.05100
C2874       C  0.22318953  0.24373473  0.96426908    -0.09400
C2875       C  0.22555330  0.23476017  0.99985846     0.06000
C2876       C  0.23578210  0.23854024  0.01852061    -0.13700
Br2877     Br  0.24410386  0.28609146  0.06107248    -0.05800
Br2878     Br  0.28652409  0.22592983  0.01419029    -0.00200
Br2879     Br  0.22846662  0.26822252  0.89867223     0.00300
Br2880     Br  0.23877680  0.22678574  0.06755867    -0.04100
Br2881     Br  0.26896263  0.29176758  0.10364461     0.00400
Br2882     Br  0.26140680  0.21954173  0.97624286    -0.03400
Br2883     Br  0.25257078  0.27754281  0.94413349    -0.04300
Br2884     Br  0.21464589  0.21802876  0.02499221    -0.00300
C2885       C  0.19342327  0.42982108  0.95987736     0.01100
C2886       C  0.18896254  0.42050384  0.92742902     0.03900
C2887       C  0.18902308  0.39960733  0.92481121    -0.12100
C2888       C  0.19400823  0.38806884  0.95376071     0.23200
C2889       C  0.19897188  0.39742147  0.98523684    -0.12700
C2890       C  0.19853071  0.41820985  0.98858264     0.04600
C2891       C  0.19401921  0.36609127  0.95080096     0.27100
C2892       C  0.18514126  0.35493560  0.96658228    -0.13400
C2893       C  0.18437495  0.33443070  0.95926181     0.05100
C2894       C  0.19260406  0.32500822  0.93691327    -0.09400
C2895       C  0.20171388  0.33601498  0.92238921     0.06000
C2896       C  0.20248296  0.35650689  0.92968310    -0.13700
Br2897     Br  0.20596874  0.38162034  0.02441125    -0.05800
Br2898     Br  0.18214256  0.43622785  0.88788663    -0.00200
Br2899     Br  0.17162011  0.31943231  0.97718459     0.00300
Br2900     Br  0.21482839  0.37175557  0.90938662    -0.04100
Br2901     Br  0.20457915  0.43081909  0.03345347     0.00400
Br2902     Br  0.18164440  0.38659797  0.88285237    -0.03400
Br2903     Br  0.17378241  0.36794180  0.99671974    -0.04300
Br2904     Br  0.21253637  0.32337200  0.88947468    -0.00300
C2905       C  0.27990179  0.25892982  0.54813824     0.01100
C2906       C  0.27151374  0.24825104  0.56777965     0.03900
C2907       C  0.26084476  0.24519253  0.55091470    -0.12100
C2908       C  0.25851210  0.25272003  0.51427752     0.23200
C2909       C  0.26689690  0.26329171  0.49466866    -0.12700
C2910       C  0.27749877  0.26640823  0.51141972     0.04600
C2911       C  0.24713803  0.25032110  0.49669195     0.27100
C2912       C  0.24464106  0.23357124  0.47425748    -0.13400
C2913       C  0.23399137  0.23163431  0.45680769     0.05100
C2914       C  0.22556346  0.24629468  0.46231814    -0.09400
C2915       C  0.22822038  0.26325386  0.48463094     0.06000
C2916       C  0.23899353  0.26534246  0.50100796    -0.13700
Br2917     Br  0.26373110  0.27377812  0.44473208    -0.05800
Br2918     Br  0.27442345  0.23886614  0.61853039    -0.00200
Br2919     Br  0.23125168  0.20910103  0.42414712     0.00300
Br2920     Br  0.24271235  0.28889218  0.52973477    -0.04100
Br2921     Br  0.28874526  0.28076693  0.48308812     0.00400
Br2922     Br  0.24927623  0.23110191  0.57814702    -0.03400
Br2923     Br  0.25595850  0.21333361  0.46733885    -0.04300
Br2924     Br  0.21704340  0.28322540  0.49596714    -0.00300
C2925       C  0.19022664  0.32391266  0.43648886     0.01100
C2926       C  0.20026586  0.33426708  0.42856944     0.03900
C2927       C  0.20076539  0.35499620  0.43372194    -0.12100
C2928       C  0.19129918  0.36535746  0.44735985     0.23200
C2929       C  0.18149329  0.35486647  0.45732986    -0.12700
C2930       C  0.18087613  0.33424516  0.45123447     0.04600
C2931       C  0.19134991  0.38738434  0.44930381     0.27100
C2932       C  0.19513851  0.39707961  0.48229019    -0.13400
C2933       C  0.19431364  0.41789100  0.48510622     0.05100
C2934       C  0.18944979  0.42902192  0.45529093    -0.09400
C2935       C  0.18596486  0.41936649  0.42190183     0.06000
C2936       C  0.18696513  0.39858091  0.41882573    -0.13700
Br2937     Br  0.16884516  0.36895470  0.47868561    -0.05800
Br2938     Br  0.21302544  0.32035058  0.40754890    -0.00200
Br2939     Br  0.19978385  0.43117465  0.53001682     0.00300
Br2940     Br  0.18177394  0.38522375  0.37367407    -0.04100
Br2941     Br  0.16714539  0.32024381  0.46256043     0.00400
Br2942     Br  0.21422414  0.36941121  0.42066072    -0.03400
Br2943     Br  0.20086296  0.38164477  0.52427130    -0.04300
Br2944     Br  0.17903630  0.43443501  0.38168274    -0.00300
C2945       C  0.19056696  0.25407452  0.74759757     0.01100
C2946       C  0.18263148  0.24133275  0.73052719     0.03900
C2947       C  0.18209923  0.23984146  0.69079485    -0.12100
C2948       C  0.18931740  0.25139205  0.66807505     0.23200
C2949       C  0.19723291  0.26415491  0.68514377    -0.12700
C2950       C  0.19793378  0.26533671  0.72490303     0.04600
C2951       C  0.18912462  0.24911338  0.62628874     0.27100
C2952       C  0.19703603  0.23656642  0.60887986    -0.13400
C2953       C  0.19713521  0.23444883  0.56926274     0.05100
C2954       C  0.18921091  0.24478865  0.54663397    -0.09400
C2955       C  0.18128680  0.25747426  0.56421618     0.06000
C2956       C  0.18120543  0.25949380  0.60406718    -0.13700
Br2957     Br  0.20713499  0.27991185  0.65390274    -0.05800
Br2958     Br  0.17207484  0.22665520  0.76134790    -0.00200
Br2959     Br  0.20876769  0.21830513  0.54643016     0.00300
Br2960     Br  0.17027351  0.27640212  0.62853960    -0.04100
Br2961     Br  0.20923752  0.28180857  0.74840132     0.00400
Br2962     Br  0.17150877  0.22194765  0.66733839    -0.03400
Br2963     Br  0.20786044  0.22239604  0.63966162    -0.04300
Br2964     Br  0.17038547  0.27176613  0.53416064    -0.00300
C2965       C  0.18767318  0.24705803  0.04549536     0.01100
C2966       C  0.19486495  0.26103139  0.06324461     0.03900
C2967       C  0.19523544  0.26247585  0.10313354    -0.12100
C2968       C  0.18873844  0.24961781  0.12575121     0.23200
C2969       C  0.18156935  0.23568581  0.10831501    -0.12700
C2970       C  0.18098417  0.23445467  0.06837210     0.04600
C2971       C  0.18923291  0.25120377  0.16789903     0.27100
C2972       C  0.19800977  0.24206250  0.18847521    -0.13400
C2973       C  0.19880585  0.24466097  0.22814944     0.05100
C2974       C  0.19039714  0.25533316  0.24777070    -0.09400
C2975       C  0.18143076  0.26401354  0.22704442     0.06000
C2976       C  0.18106245  0.26241894  0.18726183    -0.13700
Br2977     Br  0.17256411  0.21828253  0.13948445    -0.05800
Br2978     Br  0.20497497  0.27727944  0.03357664    -0.00200
Br2979     Br  0.21186534  0.23498987  0.25492026     0.00300
Br2980     Br  0.16939769  0.27583571  0.15896318    -0.04100
Br2981     Br  0.17074853  0.21579495  0.04526261     0.00400
Br2982     Br  0.20466308  0.28214715  0.12715823    -0.03400
Br2983     Br  0.20889457  0.22591680  0.16209673    -0.04300
Br2984     Br  0.16921583  0.27743988  0.25272194    -0.00300
C2985       C  0.05998116  0.32558654  0.69293356     0.01100
C2986       C  0.05048330  0.33531861  0.70794399     0.03900
C2987       C  0.04932904  0.35603524  0.70396329    -0.12100
C2988       C  0.05754170  0.36697847  0.68406550     0.23200
C2989       C  0.06653131  0.35692256  0.66629112    -0.12700
C2990       C  0.06782956  0.33627453  0.67114689     0.04600
C2991       C  0.05706647  0.38907623  0.68307389     0.27100
C2992       C  0.05023300  0.39889803  0.65631189    -0.13400
C2993       C  0.05032151  0.41979546  0.65409349     0.05100
C2994       C  0.05769098  0.43091286  0.67711542    -0.09400
C2995       C  0.06440146  0.42114684  0.70428141     0.06000
C2996       C  0.06392521  0.40029097  0.70778120    -0.13700
Br2997     Br  0.07717088  0.37160817  0.63599109    -0.05800
Br2998     Br  0.03937545  0.32027523  0.73572272    -0.00200
Br2999     Br  0.04066696  0.43328043  0.61839050     0.00300
Br3000     Br  0.07300541  0.38691187  0.74533967    -0.04100
Br3001     Br  0.08036177  0.32256136  0.64835480     0.00400
Br3002     Br  0.03679531  0.36952391  0.72722756    -0.03400
Br3003     Br  0.04141079  0.38361682  0.62087174    -0.04300
Br3004     Br  0.07447814  0.43635786  0.73574474    -0.00300
C3005       C  0.15509630  0.25874649  0.83988505     0.01100
C3006       C  0.14817285  0.24365913  0.85532761     0.03900
C3007       C  0.13666896  0.24260370  0.84538018    -0.12100
C3008       C  0.13195168  0.25653152  0.82004605     0.23200
C3009       C  0.13885632  0.27123874  0.80386645    -0.12700
C3010       C  0.15036830  0.27221201  0.81319936     0.04600
C3011       C  0.11964408  0.25628967  0.81141444     0.27100
C3012       C  0.11539087  0.24523025  0.78055169    -0.13400
C3013       C  0.10379384  0.24580848  0.77162118     0.05100
C3014       C  0.09642110  0.25793507  0.79291275    -0.09400
C3015       C  0.10070616  0.26858416  0.82446640     0.06000
C3016       C  0.11222639  0.26773633  0.83358846    -0.13700
Br3017     Br  0.13243248  0.29014769  0.76872420    -0.05800
Br3018     Br  0.15418143  0.22470974  0.89111822    -0.00200
Br3019     Br  0.09818222  0.23069069  0.72923588     0.00300
Br3020     Br  0.11796427  0.28259257  0.87628836    -0.04100
Br3021     Br  0.15966909  0.29131661  0.78677117     0.00400
Br3022     Br  0.12721102  0.22221032  0.86675963    -0.03400
Br3023     Br  0.12561403  0.22989172  0.74978928    -0.04300
Br3024     Br  0.09077499  0.28397459  0.85650317    -0.00300
C3025       C  0.06194765  0.43001846  0.17202474     0.01100
C3026       C  0.07169903  0.41801944  0.17232412     0.03900
C3027       C  0.07083076  0.39742409  0.17827517    -0.12100
C3028       C  0.06026678  0.38870804  0.18511954     0.23200
C3029       C  0.05055041  0.40068185  0.18612137    -0.12700
C3030       C  0.05135507  0.42128721  0.17929501     0.04600
C3031       C  0.05957584  0.36702138  0.19270084     0.27100
C3032       C  0.05866394  0.35342110  0.16248881    -0.13400
C3033       C  0.05952927  0.33282077  0.16935297     0.05100
C3034       C  0.06117832  0.32569220  0.20678890    -0.09400
C3035       C  0.06147733  0.33950306  0.23725946     0.06000
C3036       C  0.06066787  0.36002442  0.23010185    -0.13700
Br3037     Br  0.03614665  0.38861346  0.19606212    -0.05800
Br3038     Br  0.08637211  0.42983514  0.16574346    -0.00200
Br3039     Br  0.05927409  0.31484049  0.12672497     0.00300
Br3040     Br  0.06108256  0.37882874  0.27153427    -0.04100
Br3041     Br  0.03783564  0.43714711  0.17748880     0.00400
Br3042     Br  0.08412576  0.38096733  0.17644752    -0.03400
Br3043     Br  0.05639789  0.36324426  0.11157626    -0.04300
Br3044     Br  0.06266912  0.33072567  0.28942415    -0.00300
C3045       C  0.06298537  0.24992838  0.08539475     0.01100
C3046       C  0.07036686  0.26331894  0.06720747     0.03900
C3047       C  0.06924828  0.26703338  0.02798757    -0.12100
C3048       C  0.06106879  0.25683503  0.00665073     0.23200
C3049       C  0.05362613  0.24369739  0.02469067    -0.12700
C3050       C  0.05452046  0.24027065  0.06385654     0.04600
C3051       C  0.06088593  0.25843812  0.96472320     0.27100
C3052       C  0.05419232  0.27285713  0.94661180    -0.13400
C3053       C  0.05393854  0.27391586  0.90666074     0.05100
C3054       C  0.06025348  0.26027886  0.88475560    -0.09400
C3055       C  0.06676630  0.24556281  0.90319673     0.06000
C3056       C  0.06714191  0.24480346  0.94302155    -0.13700
Br3057     Br  0.04214712  0.23039168  0.99536280    -0.05800
Br3058     Br  0.08256591  0.27530624  0.09500702    -0.00200
Br3059     Br  0.04460787  0.29359367  0.88220989     0.00300
Br3060     Br  0.07639461  0.22521020  0.96821184    -0.04100
Br3061     Br  0.04373296  0.22264384  0.08736032     0.00400
Br3062     Br  0.07885679  0.28607337  0.00309084    -0.03400
Br3063     Br  0.04537387  0.29099528  0.97687298    -0.04300
Br3064     Br  0.07573146  0.22691129  0.87439285    -0.00300
C3065       C  0.05921133  0.25153337  0.38531027     0.01100
C3066       C  0.05612175  0.26805813  0.40846422     0.03900
C3067       C  0.05638924  0.26653750  0.44832001    -0.12100
C3068       C  0.05964844  0.24867749  0.46570787     0.23200
C3069       C  0.06190265  0.23182712  0.44334227    -0.12700
C3070       C  0.06142946  0.23300080  0.40338946     0.04600
C3071       C  0.06024374  0.24737255  0.50775001     0.27100
C3072       C  0.06965310  0.25486593  0.52746026    -0.13400
C3073       C  0.07016559  0.25353402  0.56736887     0.05100
C3074       C  0.06150244  0.24386899  0.58750072    -0.09400
C3075       C  0.05210508  0.23629419  0.56750119     0.06000
C3076       C  0.05133592  0.23864801  0.52797047    -0.13700
Br3077     Br  0.06589753  0.20712067  0.46797934    -0.05800
Br3078     Br  0.05078328  0.29282550  0.38691886    -0.00200
Br3079     Br  0.08287110  0.26444726  0.59421496     0.00300
Br3080     Br  0.03787126  0.23060720  0.50139083    -0.04100
Br3081     Br  0.06371259  0.20870184  0.37510041     0.00400
Br3082     Br  0.05223950  0.28895703  0.47972354    -0.03400
Br3083     Br  0.08179879  0.26700043  0.49957490    -0.04300
Br3084     Br  0.03995133  0.22316195  0.59375707    -0.00300
C3085       C  0.09762862  0.25382306  0.28984357     0.01100
C3086       C  0.10556805  0.26663502  0.27265719     0.03900
C3087       C  0.11701626  0.26562594  0.28293026    -0.12100
C3088       C  0.12069968  0.25159903  0.30990766     0.23200
C3089       C  0.11294797  0.23817651  0.32577015    -0.12700
C3090       C  0.10144577  0.23943193  0.31626526     0.04600
C3091       C  0.13264586  0.25150331  0.32269411     0.27100
C3092       C  0.14071891  0.23991754  0.30353071    -0.13400
C3093       C  0.15208492  0.24041621  0.31492214     0.05100
C3094       C  0.15549633  0.25303634  0.34491732    -0.09400
C3095       C  0.14731105  0.26403114  0.36494088     0.06000
C3096       C  0.13593131  0.26319119  0.35398164    -0.13700
Br3097     Br  0.11817582  0.21833933  0.36127814    -0.05800
Br3098     Br  0.10087811  0.28536538  0.23421864    -0.00200
Br3099     Br  0.16295985  0.22442104  0.28799816     0.00300
Br3100     Br  0.12480058  0.27833559  0.38139654    -0.04100
Br3101     Br  0.09096889  0.22239135  0.34219891     0.00400
Br3102     Br  0.12772554  0.28366832  0.26050944    -0.03400
Br3103     Br  0.13618409  0.22392087  0.26075673    -0.04300
Br3104     Br  0.15163918  0.27977710  0.40828771    -0.00300
C3105       C  0.05964009  0.82859909  0.95865876     0.01100
C3106       C  0.04897082  0.83772532  0.96074394     0.03900
C3107       C  0.04794917  0.85834771  0.95529101    -0.12100
C3108       C  0.05752703  0.86977449  0.94677837     0.23200
C3109       C  0.06806004  0.86046129  0.94226491    -0.12700
C3110       C  0.06914304  0.83992120  0.94860697     0.04600
C3111       C  0.05653480  0.89154212  0.94161189     0.27100
C3112       C  0.05345776  0.89924789  0.90596430    -0.13400
C3113       C  0.05339636  0.91987356  0.90007996     0.05100
C3114       C  0.05693196  0.93279385  0.92923138    -0.09400
C3115       C  0.05941679  0.92519620  0.96550693     0.06000
C3116       C  0.05906570  0.90454480  0.97183792    -0.13700
Br3117     Br  0.08094857  0.87589908  0.92694090    -0.05800
Br3118     Br  0.03579628  0.82219160  0.97267867    -0.00200
Br3119     Br  0.04822774  0.93053511  0.85225662     0.00300
Br3120     Br  0.06230041  0.89394683  0.02152284    -0.04100
Br3121     Br  0.08355450  0.82714511  0.94225552     0.00400
Br3122     Br  0.03348572  0.87110968  0.96001921    -0.03400
Br3123     Br  0.04978920  0.88145299  0.86483051    -0.04300
Br3124     Br  0.06388867  0.94291926  0.00571314    -0.00300
C3125       C  0.05948448  0.07927110  0.84613676     0.01100
C3126       C  0.06008146  0.08371823  0.80691992     0.03900
C3127       C  0.06084281  0.10363713  0.79480346    -0.12100
C3128       C  0.06153342  0.11908078  0.82169462     0.23200
C3129       C  0.06207250  0.11452980  0.86061037    -0.12700
C3130       C  0.06082067  0.09476221  0.87291972     0.04600
C3131       C  0.06097307  0.14016630  0.80935830     0.27100
C3132       C  0.07083432  0.15061012  0.79997495    -0.13400
C3133       C  0.07017942  0.17053174  0.78789006     0.05100
C3134       C  0.05962147  0.18009057  0.78502319    -0.09400
C3135       C  0.04978567  0.16974474  0.79559252     0.06000
C3136       C  0.05047954  0.14986973  0.80784448    -0.13700
Br3137     Br  0.06464988  0.13556246  0.89683017    -0.05800
Br3138     Br  0.05950406  0.06282941  0.76942209    -0.00200
Br3139     Br  0.08376227  0.18425638  0.77341240     0.00300
Br3140     Br  0.03705924  0.13583491  0.82300503    -0.04100
Br3141     Br  0.06144865  0.08902490  0.92661167     0.00400
Br3142     Br  0.06073386  0.10993505  0.74134959    -0.03400
Br3143     Br  0.08521842  0.13749273  0.80372557    -0.04300
Br3144     Br  0.03537843  0.18295324  0.79487319    -0.00300
C3145       C  0.05975346  0.92999014  0.43163529     0.01100
C3146       C  0.07017940  0.92015128  0.43491608     0.03900
C3147       C  0.07050699  0.89959558  0.44112027    -0.12100
C3148       C  0.06041160  0.88886415  0.44430139     0.23200
C3149       C  0.04999233  0.89885495  0.44351450    -0.12700
C3150       C  0.04965638  0.91950013  0.43737323     0.04600
C3151       C  0.06082524  0.86706559  0.44880830     0.27100
C3152       C  0.06174097  0.85467790  0.41666094    -0.13400
C3153       C  0.06273168  0.83397521  0.42126633     0.05100
C3154       C  0.06260216  0.82571118  0.45800832    -0.09400
C3155       C  0.06138866  0.83815378  0.49003594     0.06000
C3156       C  0.06075059  0.85881791  0.48544404    -0.13700
Br3157     Br  0.03622109  0.88402357  0.44894220    -0.05800
Br3158     Br  0.08404907  0.93488557  0.43007985    -0.00200
Br3159     Br  0.06497000  0.81713188  0.37759716     0.00300
Br3160     Br  0.06023725  0.87600766  0.52931367    -0.04100
Br3161     Br  0.03539317  0.93307712  0.43398245     0.00400
Br3162     Br  0.08476809  0.88595728  0.44380970    -0.03400
Br3163     Br  0.06204294  0.86623953  0.36653881    -0.04300
Br3164     Br  0.06021338  0.82695056  0.54037185    -0.00300
C3165       C  0.05984480  0.99814383  0.74110730     0.01100
C3166       C  0.05136489  0.00828327  0.72084306     0.03900
C3167       C  0.05185242  0.00933813  0.68090584    -0.12100
C3168       C  0.06075760  0.00015509  0.66114084     0.23200
C3169       C  0.06915813  0.98988063  0.68122595    -0.12700
C3170       C  0.06877839  0.98897313  0.72104899     0.04600
C3171       C  0.06151893  0.00164211  0.61920805     0.27100
C3172       C  0.05596839  0.98772610  0.59606913    -0.13400
C3173       C  0.05656937  0.98935275  0.55625873     0.05100
C3174       C  0.06324879  0.00438731  0.53935431    -0.09400
C3175       C  0.06921202  0.01774722  0.56290670     0.06000
C3176       C  0.06812452  0.01664068  0.60262336    -0.13700
Br3177     Br  0.08123199  0.97709587  0.65379410    -0.05800
Br3178     Br  0.03879217  0.01985257  0.74748025    -0.00200
Br3179     Br  0.04733580  0.97198221  0.52569234     0.00300
Br3180     Br  0.07552099  0.03588321  0.63467806    -0.04100
Br3181     Br  0.08090271  0.97581767  0.74767378     0.00400
Br3182     Br  0.04033734  0.02329328  0.65300607    -0.03400
Br3183     Br  0.04741709  0.96658739  0.61927484    -0.04300
Br3184     Br  0.07914351  0.03735803  0.54111769    -0.00300
C3185       C  0.05794614  0.00424131  0.24066604     0.01100
C3186       C  0.05156333  0.99178297  0.21660132     0.03900
C3187       C  0.05196134  0.99441071  0.17697972    -0.12100
C3188       C  0.05854943  0.00968467  0.16119063     0.23200
C3189       C  0.06467795  0.02246997  0.18509604    -0.12700
C3190       C  0.06469502  0.01934306  0.22461483     0.04600
C3191       C  0.05899733  0.01213041  0.11933403     0.27100
C3192       C  0.06706759  0.00171940  0.09778785    -0.13400
C3193       C  0.06714919  0.00336054  0.05788766     0.05100
C3194       C  0.05879459  0.01466886  0.03926130    -0.09400
C3195       C  0.05061733  0.02487967  0.06111056     0.06000
C3196       C  0.05090936  0.02395408  0.10097364    -0.13700
Br3197     Br  0.07297718  0.04434891  0.16357512    -0.05800
Br3198     Br  0.04217239  0.97113954  0.23757869    -0.00200
Br3199     Br  0.07905638  0.99095030  0.02919633     0.00300
Br3200     Br  0.04002392  0.03845875  0.13078474    -0.04100
Br3201     Br  0.07495225  0.03435793  0.25597553     0.00400
Br3202     Br  0.04347182  0.97713108  0.14392029    -0.03400
Br3203     Br  0.07779554  0.98477200  0.12314160    -0.04300
Br3204     Br  0.03840410  0.03906501  0.03698139    -0.00300
C3205       C  0.06157489  0.17593628  0.27269547     0.01100
C3206       C  0.05214653  0.16828060  0.29186853     0.03900
C3207       C  0.05218625  0.14854523  0.30504877    -0.12100
C3208       C  0.06163119  0.13629299  0.29883526     0.23200
C3209       C  0.07104607  0.14388708  0.27931798    -0.12700
C3210       C  0.07108865  0.16379079  0.26680292     0.04600
C3211       C  0.06179492  0.11579952  0.31463543     0.27100
C3212       C  0.06686287  0.11223183  0.35018253    -0.13400
C3213       C  0.06638338  0.09318350  0.36660185     0.05100
C3214       C  0.06069946  0.07767484  0.34779649    -0.09400
C3215       C  0.05550680  0.08128291  0.31247789     0.06000
C3216       C  0.05624507  0.10020814  0.29557412    -0.13700
Br3217     Br  0.08375611  0.12685241  0.26927917    -0.05800
Br3218     Br  0.03934603  0.18517487  0.30135793    -0.00200
Br3219     Br  0.07355655  0.08829212  0.41488448     0.00300
Br3220     Br  0.04953367  0.10491985  0.24654464    -0.04100
Br3221     Br  0.08412118  0.17441480  0.24132665     0.00400
Br3222     Br  0.03931842  0.13826714  0.33195772    -0.03400
Br3223     Br  0.07423952  0.13364462  0.37673895    -0.04300
Br3224     Br  0.04659410  0.06079645  0.28882942    -0.00300
C3225       C  0.22160126  0.01004619  0.66307206     0.01100
C3226       C  0.23111639  0.01961545  0.67849051     0.03900
C3227       C  0.24170903  0.01797748  0.66043349    -0.12100
C3228       C  0.24287807  0.00684447  0.62665294     0.23200
C3229       C  0.23341119  0.99717564  0.61139417    -0.12700
C3230       C  0.22289104  0.99848040  0.62970524     0.04600
C3231       C  0.25419272  0.00369330  0.60894177     0.27100
C3232       C  0.25865706  0.01736970  0.58258447    -0.13400
C3233       C  0.26943266  0.01425871  0.56652330     0.05100
C3234       C  0.27581937  0.99723434  0.57635413    -0.09400
C3235       C  0.27102539  0.98310915  0.60171593     0.06000
C3236       C  0.26033822  0.98643750  0.61784785    -0.13700
Br3237     Br  0.23492972  0.98218749  0.56490279    -0.05800
Br3238     Br  0.22973428  0.03395897  0.72563075    -0.00200
Br3239     Br  0.27522911  0.03314071  0.53021756     0.00300
Br3240     Br  0.25410981  0.96749613  0.65335451    -0.04100
Br3241     Br  0.21027411  0.98454390  0.60794272     0.00400
Br3242     Br  0.25468390  0.03085018  0.68202711    -0.03400
Br3243     Br  0.24988116  0.04029268  0.56837284    -0.04300
Br3244     Br  0.27934453  0.95996316  0.61846927    -0.00300
C3245       C  0.19283684  0.82679513  0.67206548     0.01100
C3246       C  0.18322478  0.83740973  0.68397841     0.03900
C3247       C  0.18361006  0.85820015  0.68812208    -0.12100
C3248       C  0.19367306  0.86860871  0.68121998     0.23200
C3249       C  0.20350903  0.85795782  0.67192955    -0.12700
C3250       C  0.20310433  0.83709865  0.66728848     0.04600
C3251       C  0.19370668  0.89072452  0.68417960     0.27100
C3252       C  0.19059483  0.90249633  0.65267496    -0.13400
C3253       C  0.18846123  0.92300957  0.65727608     0.05100
C3254       C  0.18975156  0.93191766  0.69322848    -0.09400
C3255       C  0.19366430  0.92036854  0.72405113     0.06000
C3256       C  0.19554643  0.89984008  0.71960310    -0.13700
Br3257     Br  0.21743024  0.87211804  0.66479991    -0.05800
Br3258     Br  0.16959316  0.82340974  0.69635605    -0.00200
Br3259     Br  0.18293754  0.93852935  0.61518131     0.00300
Br3260     Br  0.20030789  0.88396509  0.76231454    -0.04100
Br3261     Br  0.21650558  0.82291323  0.65247191     0.00400
Br3262     Br  0.17025272  0.87261764  0.70277715    -0.03400
Br3263     Br  0.18899064  0.89027244  0.60349387    -0.04300
Br3264     Br  0.19655209  0.93271032  0.77257125    -0.00300
C3265       C  0.18962916  0.17752075  0.84989518     0.01100
C3266       C  0.18612858  0.16142343  0.87274428     0.03900
C3267       C  0.18570429  0.14206179  0.85767671    -0.12100
C3268       C  0.18892582  0.13849979  0.81980263     0.23200
C3269       C  0.19226274  0.15455439  0.79665971    -0.12700
C3270       C  0.19256981  0.17403866  0.81154865     0.04600
C3271       C  0.18893520  0.11778452  0.80471149     0.27100
C3272       C  0.19860344  0.10578780  0.80840136    -0.13400
C3273       C  0.19849481  0.08594800  0.79549358     0.05100
C3274       C  0.18881216  0.07811304  0.77787425    -0.09400
C3275       C  0.17908620  0.09005047  0.77467684     0.06000
C3276       C  0.17916066  0.10981855  0.78800472    -0.13700
Br3277     Br  0.19654653  0.14965010  0.74466201    -0.05800
Br3278     Br  0.18153212  0.16592595  0.92465512    -0.00200
Br3279     Br  0.21138442  0.06910958  0.80397652     0.00300
Br3280     Br  0.16593871  0.12622253  0.78292469    -0.04100
Br3281     Br  0.19764008  0.19559727  0.77981820     0.00400
Br3282     Br  0.18062502  0.12028551  0.88887972    -0.03400
Br3283     Br  0.21203710  0.11671909  0.83081958    -0.04300
Br3284     Br  0.16573744  0.07955554  0.75093549    -0.00300
C3285       C  0.09400597  0.00051310  0.83894854     0.01100
C3286       C  0.09720328  0.01270910  0.80806700     0.03900
C3287       C  0.10843131  0.01286930  0.79560781    -0.12100
C3288       C  0.11656977  0.00136135  0.81455387     0.23200
C3289       C  0.11353801  0.99015920  0.84677363    -0.12700
C3290       C  0.10224943  0.98953448  0.85869693     0.04600
C3291       C  0.12836162  0.00123873  0.80082498     0.27100
C3292       C  0.13207412  0.98622921  0.77599684    -0.13400
C3293       C  0.14331768  0.98594121  0.76347997     0.05100
C3294       C  0.15108913  0.00020629  0.77714759    -0.09400
C3295       C  0.14718715  0.01557598  0.80141857     0.06000
C3296       C  0.13584353  0.01611512  0.81281463    -0.13700
Br3297     Br  0.12491520  0.97572211  0.87444314    -0.05800
Br3298     Br  0.08620391  0.02848486  0.78114338    -0.00200
Br3299     Br  0.14784785  0.96623687  0.72659605     0.00300
Br3300     Br  0.13052509  0.03674025  0.84649664    -0.04100
Br3301     Br  0.09811674  0.97406459  0.90268340     0.00400
Br3302     Br  0.11269149  0.02850253  0.75195234    -0.03400
Br3303     Br  0.12176424  0.96566064  0.76027877    -0.04300
Br3304     Br  0.15731120  0.03521182  0.82213339    -0.00300
C3305       C  0.27631628  0.99957555  0.08673007     0.01100
C3306       C  0.27069706  0.01796491  0.08067365     0.03900
C3307       C  0.26018556  0.02178522  0.09796907    -0.12100
C3308       C  0.25459438  0.00678790  0.11861275     0.23200
C3309       C  0.25984325  0.98819280  0.12326992    -0.12700
C3310       C  0.27081063  0.98489767  0.10924945     0.04600
C3311       C  0.24300838  0.01024809  0.13402477     0.27100
C3312       C  0.24106767  0.01187499  0.17357951    -0.13400
C3313       C  0.22997388  0.01359386  0.18772470     0.05100
C3314       C  0.22086922  0.01538248  0.16239159    -0.09400
C3315       C  0.22300867  0.01598121  0.12294017     0.06000
C3316       C  0.23383567  0.01193203  0.10887318    -0.13700
Br3317     Br  0.25184685  0.96699568  0.14867635    -0.05800
Br3318     Br  0.27690006  0.03799269  0.04741060    -0.00200
Br3319     Br  0.22723776  0.01482062  0.24160408     0.00300
Br3320     Br  0.23596037  0.00785083  0.05504228    -0.04100
Br3321     Br  0.27831566  0.96069522  0.12478169     0.00400
Br3322     Br  0.25346091  0.04786441  0.09408021    -0.03400
Br3323     Br  0.25361158  0.01219289  0.20824405    -0.04300
Br3324     Br  0.21137411  0.02363872  0.08775589    -0.00300
C3325       C  0.19163546  0.82650855  0.17653534     0.01100
C3326       C  0.19447951  0.83871440  0.14534648     0.03900
C3327       C  0.19561961  0.85931805  0.15018611    -0.12100
C3328       C  0.19380122  0.86785599  0.18607328     0.23200
C3329       C  0.19155486  0.85563606  0.21769660    -0.12700
C3330       C  0.19052678  0.83492520  0.21297882     0.04600
C3331       C  0.19303355  0.88974066  0.18950439     0.27100
C3332       C  0.20265763  0.90121661  0.19727677    -0.13400
C3333       C  0.20173183  0.92200708  0.20080001     0.05100
C3334       C  0.19115383  0.93126128  0.19675337    -0.09400
C3335       C  0.18158401  0.91973340  0.18821876     0.06000
C3336       C  0.18252689  0.89904029  0.18457990    -0.13700
Br3337     Br  0.18934683  0.86752535  0.26696896    -0.05800
Br3338     Br  0.19674072  0.82727469  0.09563510    -0.00200
Br3339     Br  0.21472498  0.93754640  0.21460637     0.00300
Br3340     Br  0.16931462  0.88322929  0.17455937    -0.04100
Br3341     Br  0.18682591  0.81839587  0.25581357     0.00400
Br3342     Br  0.19921622  0.87609004  0.10739883    -0.03400
Br3343     Br  0.21692091  0.88822052  0.20515385    -0.04300
Br3344     Br  0.16704481  0.93227137  0.18281258    -0.00300
C3345       C  0.18537597  0.99807722  0.87830360     0.01100
C3346       C  0.17656227  0.98865719  0.89850384     0.03900
C3347       C  0.17650398  0.98863637  0.93846664    -0.12100
C3348       C  0.18485614  0.99897823  0.95870255     0.23200
C3349       C  0.19346853  0.00890446  0.93871517    -0.12700
C3350       C  0.19381409  0.00825960  0.89866367     0.04600
C3351       C  0.18424176  0.00017994  0.00091069     0.27100
C3352       C  0.17666586  0.01349187  0.01820705    -0.13400
C3353       C  0.17619056  0.01508281  0.05804809     0.05100
C3354       C  0.18358109  0.00383678  0.08107493    -0.09400
C3355       C  0.19079734  0.98968845  0.06360030     0.06000
C3356       C  0.19108352  0.98792968  0.02369606    -0.13700
Br3357     Br  0.20475628  0.02349442  0.96642125    -0.05800
Br3358     Br  0.16400293  0.97697387  0.87179533    -0.00200
Br3359     Br  0.16496602  0.03206312  0.08083297     0.00300
Br3360     Br  0.20106478  0.96902248  0.99988213    -0.04100
Br3361     Br  0.20606751  0.02076633  0.87196372     0.00400
Br3362     Br  0.16495344  0.97440827  0.96579322    -0.03400
Br3363     Br  0.16710017  0.02996548  0.98697475    -0.04300
Br3364     Br  0.20098131  0.97343259  0.09326859    -0.00300
C3365       C  0.18715362  0.00739624  0.37892060     0.01100
C3366       C  0.17989107  0.02169720  0.39499338     0.03900
C3367       C  0.17864782  0.02276049  0.43468903    -0.12100
C3368       C  0.18461926  0.00951677  0.45824921     0.23200
C3369       C  0.19164930  0.99495982  0.44215343    -0.12700
C3370       C  0.19302683  0.99404631  0.40263396     0.04600
C3371       C  0.18441768  0.01195125  0.50000817     0.27100
C3372       C  0.19278660  0.02354083  0.51737279    -0.13400
C3373       C  0.19335595  0.02479257  0.55711259     0.05100
C3374       C  0.18534189  0.01475876  0.57986657    -0.09400
C3375       C  0.17675279  0.00358196  0.56224958     0.06000
C3376       C  0.17642564  0.00190062  0.52237346    -0.13700
Br3377     Br  0.19925076  0.97607187  0.47449814    -0.05800
Br3378     Br  0.17112537  0.03900785  0.36277146    -0.00200
Br3379     Br  0.20567624  0.03931143  0.57973109     0.00300
Br3380     Br  0.16528674  0.98539441  0.49816771    -0.04100
Br3381     Br  0.20318238  0.97468657  0.38102304     0.00400
Br3382     Br  0.16856361  0.04194140  0.45696979    -0.03400
Br3383     Br  0.20374707  0.03716079  0.48629734    -0.04300
Br3384     Br  0.16511983  0.99135983  0.59239551    -0.00300
C3385       C  0.19381107  0.17662045  0.35348704     0.01100
C3386       C  0.19461085  0.15983396  0.37782373     0.03900
C3387       C  0.19400942  0.14042536  0.36276489    -0.12100
C3388       C  0.19287567  0.13750413  0.32339593     0.23200
C3389       C  0.19247354  0.15401892  0.29896332    -0.12700
C3390       C  0.19277283  0.17345947  0.31379709     0.04600
C3391       C  0.19179531  0.11708999  0.30746806     0.27100
C3392       C  0.20141318  0.10656323  0.29560505    -0.13400
C3393       C  0.20030157  0.08780121  0.27817821     0.05100
C3394       C  0.18951886  0.07942868  0.27254698    -0.09400
C3395       C  0.17992542  0.08975065  0.28566789     0.06000
C3396       C  0.18106973  0.10857500  0.30272801    -0.13700
Br3397     Br  0.19153752  0.14978057  0.24479230    -0.05800
Br3398     Br  0.19591472  0.16291792  0.43221821    -0.00200
Br3399     Br  0.21364409  0.07328936  0.26370188     0.00300
Br3400     Br  0.16790272  0.12311040  0.31867549    -0.04100
Br3401     Br  0.19206298  0.19541689  0.27868798     0.00400
Br3402     Br  0.19451081  0.11761575  0.39599813    -0.03400
Br3403     Br  0.21609380  0.11812445  0.30293295    -0.04300
Br3404     Br  0.16509648  0.07866463  0.27873030    -0.00300
C3405       C  0.09412137  0.99518471  0.33282965     0.01100
C3406       C  0.10137207  0.00830897  0.35242782     0.03900
C3407       C  0.11279555  0.00994037  0.34180905    -0.12100
C3408       C  0.11719321  0.99808136  0.31232997     0.23200
C3409       C  0.11007999  0.98471673  0.29321682    -0.12700
C3410       C  0.09860391  0.98339029  0.30299491     0.04600
C3411       C  0.12944648  0.99866173  0.30295163     0.27100
C3412       C  0.13356986  0.01111766  0.27386081    -0.13400
C3413       C  0.14512913  0.01098688  0.26434549     0.05100
C3414       C  0.15267386  0.99854426  0.28425302    -0.09400
C3415       C  0.14849495  0.98636678  0.31392384     0.06000
C3416       C  0.13693803  0.98612936  0.32255216    -0.13700
Br3417     Br  0.11620833  0.96805892  0.25362879    -0.05800
Br3418     Br  0.09598856  0.02304689  0.39569512    -0.00200
Br3419     Br  0.15044584  0.02698799  0.22267271     0.00300
Br3420     Br  0.13122697  0.96806638  0.36055910    -0.04100
Br3421     Br  0.08908836  0.96581187  0.27384017     0.00400
Br3422     Br  0.12255220  0.02832184  0.36782162    -0.03400
Br3423     Br  0.12323520  0.02785669  0.24634852    -0.04300
Br3424     Br  0.15858816  0.97050929  0.34452611    -0.00300
C3425       C  0.80784851  0.00329833  0.62186107     0.01100
C3426       C  0.79893688  0.99186180  0.60679557     0.03900
C3427       C  0.79849560  0.98788678  0.56751007    -0.12100
C3428       C  0.80701016  0.99513963  0.54338023     0.23200
C3429       C  0.81595430  0.00627973  0.55845755    -0.12700
C3430       C  0.81635052  0.01051622  0.59741477     0.04600
C3431       C  0.80636480  0.99269121  0.50161665     0.27100
C3432       C  0.81290948  0.97810555  0.48345542    -0.13400
C3433       C  0.81431115  0.97857534  0.44375405     0.05100
C3434       C  0.80873318  0.99320342  0.42164643    -0.09400
C3435       C  0.80186512  0.00747985  0.44020558     0.06000
C3436       C  0.80076760  0.00720218  0.47998103    -0.13700
Br3437     Br  0.82765525  0.01601043  0.52518760    -0.05800
Br3438     Br  0.78698707  0.98260236  0.63943771    -0.00200
Br3439     Br  0.82461694  0.95997159  0.42056159     0.00300
Br3440     Br  0.79173711  0.02701803  0.50546867    -0.04100
Br3441     Br  0.82885980  0.02580023  0.61679206     0.00400
Br3442     Br  0.78615324  0.97294794  0.54647272    -0.03400
Br3443     Br  0.82018348  0.95782595  0.51353356    -0.04300
Br3444     Br  0.79342120  0.02713590  0.41200834    -0.00300
C3445       C  0.81025166  0.00893342  0.12264558     0.01100
C3446       C  0.80094537  0.00135551  0.10250215     0.03900
C3447       C  0.80136821  0.99970299  0.06258546    -0.12100
C3448       C  0.81120828  0.00506968  0.04272728     0.23200
C3449       C  0.82063383  0.01198035  0.06291229    -0.12700
C3450       C  0.82004543  0.01454704  0.10251827     0.04600
C3451       C  0.81154441  0.00412079  0.00051943     0.27100
C3452       C  0.81387256  0.98604980  0.98207763    -0.13400
C3453       C  0.81415976  0.98519688  0.94217702     0.05100
C3454       C  0.81121166  0.00208081  0.92020955    -0.09400
C3455       C  0.80949156  0.02049791  0.93887729     0.06000
C3456       C  0.80981159  0.02147472  0.97886316    -0.13700
Br3457     Br  0.83444500  0.01750278  0.03608887    -0.05800
Br3458     Br  0.78739709  0.99431093  0.12934637    -0.00200
Br3459     Br  0.81961576  0.96122155  0.91808497     0.00300
Br3460     Br  0.80770927  0.04661375  0.00435220    -0.04100
Br3461     Br  0.83277155  0.02581523  0.12879675     0.00400
Br3462     Br  0.78846068  0.99021098  0.03485455    -0.03400
Br3463     Br  0.81655219  0.96236543  0.01166857    -0.04300
Br3464     Br  0.80646520  0.04456250  0.91081311    -0.00300
C3465       C  0.97356979  0.00257649  0.55717886     0.01100
C3466       C  0.97687902  0.02000753  0.53708933     0.03900
C3467       C  0.98756400  0.02113841  0.51961152    -0.12100
C3468       C  0.99538923  0.00559445  0.52363346     0.23200
C3469       C  0.99277113  0.98952409  0.54765788    -0.12700
C3470       C  0.98199625  0.98805257  0.56454509     0.04600
C3471       C  0.00655009  0.00681499  0.50392851     0.27100
C3472       C  0.00806254  0.99852734  0.46742982    -0.13400
C3473       C  0.01847806  0.00043022  0.44826692     0.05100
C3474       C  0.02729547  0.01158911  0.46456525    -0.09400
C3475       C  0.02561669  0.02027024  0.50089203     0.06000
C3476       C  0.01545150  0.01738312  0.52075793    -0.13700
Br3477     Br  0.00407540  0.96956080  0.55735403    -0.05800
Br3478     Br  0.96736554  0.04316125  0.53404240    -0.00200
Br3479     Br  0.02045831  0.98853028  0.39894791     0.00300
Br3480     Br  0.01365823  0.02786722  0.57145216    -0.04100
Br3481     Br  0.97931493  0.96692340  0.60043761     0.00400
Br3482     Br  0.99156345  0.04399419  0.48922713    -0.03400
Br3483     Br  0.99567093  0.98507647  0.44335832    -0.04300
Br3484     Br  0.03722363  0.03598878  0.52468540    -0.00300
C3485       C  0.90141069  0.00476804  0.65922879     0.01100
C3486       C  0.89269491  0.01528777  0.64091059     0.03900
C3487       C  0.88146075  0.01279340  0.65270714    -0.12100
C3488       C  0.87885413  0.99971006  0.68272186     0.23200
C3489       C  0.88745430  0.98851441  0.69991382    -0.12700
C3490       C  0.89870524  0.99109373  0.68843365     0.04600
C3491       C  0.86720170  0.99914124  0.69800729     0.27100
C3492       C  0.86408389  0.01238714  0.72715665    -0.13400
C3493       C  0.85273387  0.01412251  0.73800948     0.05100
C3494       C  0.84441085  0.00288008  0.71921516    -0.09400
C3495       C  0.84763702  0.98880603  0.69149558     0.06000
C3496       C  0.85903781  0.98673690  0.68140970    -0.13700
Br3497     Br  0.88379349  0.97027360  0.74035175    -0.05800
Br3498     Br  0.89611228  0.03298281  0.59941135    -0.00200
Br3499     Br  0.84861196  0.03186725  0.77872633     0.00300
Br3500     Br  0.86347679  0.96746026  0.64380330    -0.04100
Br3501     Br  0.91040797  0.97701545  0.71534996     0.00400
Br3502     Br  0.86958912  0.02785885  0.62880959    -0.03400
Br3503     Br  0.87538191  0.02873455  0.75103889    -0.04300
Br3504     Br  0.83639530  0.97372711  0.66439896    -0.00300
C3505       C  0.02354865  0.01007105  0.95065357     0.01100
C3506       C  0.02188295  0.99552003  0.97935120     0.03900
C3507       C  0.01117685  0.99264109  0.99538684    -0.12100
C3508       C  0.00203490  0.00431710  0.98348744     0.23200
C3509       C  0.00350887  0.01836549  0.95421083    -0.12700
C3510       C  0.01422530  0.02124983  0.93778762     0.04600
C3511       C  0.99088875  0.00168484  0.00202787     0.27100
C3512       C  0.98331811  0.98743531  0.98801910    -0.13400
C3513       C  0.97291363  0.98442028  0.00614263     0.05100
C3514       C  0.97000276  0.99561855  0.03887541    -0.09400
C3515       C  0.97767913  0.00981409  0.05297840     0.06000
C3516       C  0.98809111  0.01277522  0.03464462    -0.13700
Br3517     Br  0.99074810  0.03355468  0.93680619    -0.05800
Br3518     Br  0.03425922  0.98012277  0.99940946    -0.00200
Br3519     Br  0.96250950  0.96565064  0.98393373     0.00300
Br3520     Br  0.99867776  0.03187057  0.05431947    -0.04100
Br3521     Br  0.01597832  0.03993449  0.89671831     0.00400
Br3522     Br  0.00896758  0.97279773  0.03438724    -0.03400
Br3523     Br  0.98727626  0.97209067  0.94363504    -0.04300
Br3524     Br  0.97421607  0.02464193  0.09831301    -0.00300
C3525       C  0.93353371  0.99560781  0.95917073     0.01100
C3526       C  0.92633467  0.98314340  0.93790230     0.03900
C3527       C  0.92593865  0.98475585  0.89793325    -0.12100
C3528       C  0.93312574  0.99809688  0.87888429     0.23200
C3529       C  0.94043362  0.01027936  0.89998657    -0.12700
C3530       C  0.94052105  0.00931807  0.93990089     0.04600
C3531       C  0.93312746  0.99954532  0.83665479     0.27100
C3532       C  0.94118170  0.98904623  0.81521064    -0.13400
C3533       C  0.94230045  0.99258843  0.77589888     0.05100
C3534       C  0.93492886  0.00591763  0.75729576    -0.09400
C3535       C  0.92641331  0.01556650  0.77872052     0.06000
C3536       C  0.92572281  0.01272518  0.81828122    -0.13700
Br3537     Br  0.95051625  0.02812007  0.87382186    -0.05800
Br3538     Br  0.91686552  0.96406229  0.96334662    -0.00200
Br3539     Br  0.95446755  0.98015255  0.74847408     0.00300
Br3540     Br  0.91467554  0.02705747  0.84770360    -0.04100
Br3541     Br  0.95079202  0.02617873  0.96763606     0.00400
Br3542     Br  0.91550988  0.96886552  0.86907356    -0.03400
Br3543     Br  0.95072219  0.96985916  0.84012407    -0.04300
Br3544     Br  0.91515605  0.03193278  0.75426672    -0.00300
C3545       C  0.93923776  0.01163221  0.25615846     0.01100
C3546       C  0.94819512  0.00193123  0.27470566     0.03900
C3547       C  0.94811323  0.00003016  0.31455161    -0.12100
C3548       C  0.93894767  0.00737778  0.33572993     0.23200
C3549       C  0.92997348  0.01692496  0.31718704    -0.12700
C3550       C  0.93024139  0.01952851  0.27767046     0.04600
C3551       C  0.93865996  0.00519131  0.37759842     0.27100
C3552       C  0.93461015  0.98755553  0.39399778    -0.13400
C3553       C  0.93415676  0.98556277  0.43378458     0.05100
C3554       C  0.93768224  0.00139815  0.45758438    -0.09400
C3555       C  0.94096410  0.01963894  0.44059433     0.06000
C3556       C  0.94171870  0.02126740  0.40084693    -0.13700
Br3557     Br  0.91709035  0.02577263  0.34603507    -0.05800
Br3558     Br  0.96076108  0.99203611  0.24571302    -0.00200
Br3559     Br  0.92784107  0.96154405  0.45493832     0.00300
Br3560     Br  0.94706166  0.04556611  0.37779696    -0.04100
Br3561     Br  0.91800367  0.03352419  0.25336908     0.00400
Br3562     Br  0.96048172  0.98730498  0.34031425    -0.03400
Br3563     Br  0.92946808  0.96632096  0.36143892    -0.04300
Br3564     Br  0.94445459  0.04283853  0.47047711    -0.00300
C3565       C  0.90239532  0.01170977  0.16659991     0.01100
C3566       C  0.89880413  0.99735264  0.19343677     0.03900
C3567       C  0.88743002  0.99639904  0.20447444    -0.12100
C3568       C  0.87957000  0.00996501  0.18962868     0.23200
C3569       C  0.88304305  0.02414074  0.16259958    -0.12700
C3570       C  0.89438942  0.02498151  0.15097768     0.04600
C3571       C  0.86759723  0.00891924  0.20193869     0.27100
C3572       C  0.86008456  0.99608534  0.18315659    -0.13400
C3573       C  0.84876656  0.99488699  0.19481157     0.05100
C3574       C  0.84475355  0.00736250  0.22419977    -0.09400
C3575       C  0.85243659  0.01946634  0.24419549     0.06000
C3576       C  0.86383995  0.02004612  0.23338411    -0.13700
Br3577     Br  0.87214152  0.04215791  0.14104082    -0.05800
Br3578     Br  0.90943282  0.97959933  0.21734325    -0.00200
Br3579     Br  0.83882585  0.97654031  0.16930086     0.00300
Br3580     Br  0.87437602  0.03596728  0.26174920    -0.04100
Br3581     Br  0.89876844  0.04378960  0.11226878     0.00400
Br3582     Br  0.88246694  0.97638596  0.24000721    -0.03400
Br3583     Br  0.86535594  0.98043682  0.14082832    -0.04300
Br3584     Br  0.84741050  0.03469765  0.28746734    -0.00300
C3585       C  0.80823846  0.82996676  0.65322832     0.01100
C3586       C  0.80933626  0.83272576  0.69300000     0.03900
C3587       C  0.80845887  0.85191511  0.70905629    -0.12100
C3588       C  0.80693045  0.86866187  0.68564375     0.23200
C3589       C  0.80607950  0.86611870  0.64607438    -0.12700
C3590       C  0.80672241  0.84695407  0.62991394     0.04600
C3591       C  0.80672667  0.88907462  0.70234469     0.27100
C3592       C  0.79643310  0.89838922  0.71101844    -0.13400
C3593       C  0.79625351  0.91806485  0.72487964     0.05100
C3594       C  0.80642045  0.92845766  0.73134345    -0.09400
C3595       C  0.81674963  0.91884503  0.72341385     0.06000
C3596       C  0.81687314  0.89932273  0.70880061    -0.13700
Br3597     Br  0.80415538  0.88915287  0.61400240    -0.05800
Br3598     Br  0.81201558  0.81055496  0.72627986    -0.00200
Br3599     Br  0.78196562  0.93093801  0.73283586     0.00300
Br3600     Br  0.83098632  0.88629324  0.69816878    -0.04100
Br3601     Br  0.80638402  0.84443507  0.57528622     0.00400
Br3602     Br  0.80921320  0.85547019  0.76341331    -0.03400
Br3603     Br  0.78257499  0.88392689  0.70437139    -0.04300
Br3604     Br  0.83085150  0.93178888  0.73453230    -0.00300
C3605       C  0.81419022  0.75105255  0.75239438     0.01100
C3606       C  0.80579130  0.76184043  0.77184484     0.03900
C3607       C  0.80651903  0.76444496  0.81147280    -0.12100
C3608       C  0.81530546  0.75539089  0.83214861     0.23200
C3609       C  0.82339956  0.74387795  0.81298660    -0.12700
C3610       C  0.82307984  0.74224626  0.77318194     0.04600
C3611       C  0.81567950  0.75694597  0.87427121     0.27100
C3612       C  0.82327537  0.77000769  0.89219244    -0.13400
C3613       C  0.82351917  0.77142543  0.93213949     0.05100
C3614       C  0.81616609  0.75973607  0.95442412    -0.09400
C3615       C  0.80865178  0.74651019  0.93625087     0.06000
C3616       C  0.80848876  0.74505051  0.89641114    -0.13700
Br3617     Br  0.83463423  0.72956952  0.84165893    -0.05800
Br3618     Br  0.79277622  0.77162521  0.74485884    -0.00200
Br3619     Br  0.83405098  0.78925440  0.95617775     0.00300
Br3620     Br  0.79824114  0.72689771  0.87181953    -0.04100
Br3621     Br  0.83516865  0.72854529  0.74744122     0.00400
Br3622     Br  0.79525121  0.77984446  0.83776891    -0.03400
Br3623     Br  0.83322638  0.78615141  0.86181862    -0.04300
Br3624     Br  0.79781477  0.73145036  0.96525553    -0.00300
C3625       C  0.80769460  0.75849134  0.25212675     0.01100
C3626       C  0.80418395  0.74212739  0.27446066     0.03900
C3627       C  0.80441932  0.74324339  0.31433478    -0.12100
C3628       C  0.80757209  0.76101865  0.33237150     0.23200
C3629       C  0.81010795  0.77792749  0.31037934    -0.12700
C3630       C  0.81014772  0.77677378  0.27036123     0.04600
C3631       C  0.80781023  0.76212249  0.37454635     0.27100
C3632       C  0.79831905  0.76906674  0.39437589    -0.13400
C3633       C  0.79861909  0.77077659  0.43418538     0.05100
C3634       C  0.80826877  0.76465179  0.45464092    -0.09400
C3635       C  0.81769646  0.75738038  0.43475156     0.06000
C3636       C  0.81751261  0.75634642  0.39477232    -0.13700
Br3637     Br  0.81372967  0.80259903  0.33552040    -0.05800
Br3638     Br  0.79811746  0.71857269  0.25067749    -0.00200
Br3639     Br  0.78568488  0.78147883  0.46021130     0.00300
Br3640     Br  0.83058559  0.74724640  0.36746631    -0.04100
Br3641     Br  0.81375427  0.80035998  0.24155422     0.00400
Br3642     Br  0.80052058  0.72032012  0.34452950    -0.03400
Br3643     Br  0.78485299  0.77601574  0.36670604    -0.04300
Br3644     Br  0.83109348  0.74991453  0.46217217    -0.00300
C3645       C  0.81036564  0.83145736  0.14900033     0.01100
C3646       C  0.82050315  0.84079252  0.15974980     0.03900
C3647       C  0.82024239  0.85951261  0.17743635    -0.12100
C3648       C  0.80986217  0.86877233  0.18497034     0.23200
C3649       C  0.79973462  0.85896655  0.17623641    -0.12700
C3650       C  0.79997366  0.84040814  0.15795134     0.04600
C3651       C  0.80956147  0.88940369  0.19949837     0.27100
C3652       C  0.81051274  0.89318071  0.23864905    -0.13400
C3653       C  0.80989138  0.91280624  0.25218033     0.05100
C3654       C  0.80839062  0.92875079  0.22647549    -0.09400
C3655       C  0.80758093  0.92491050  0.18718673     0.06000
C3656       C  0.80815198  0.90525840  0.17379528    -0.13700
Br3657     Br  0.78555556  0.87117135  0.18919260    -0.05800
Br3658     Br  0.83479664  0.82845730  0.14862748    -0.00200
Br3659     Br  0.81153707  0.91775195  0.30596210     0.00300
Br3660     Br  0.80690788  0.89988173  0.12009771    -0.04100
Br3661     Br  0.78605505  0.82701144  0.14632245     0.00400
Br3662     Br  0.83408373  0.87280875  0.19045820    -0.03400
Br3663     Br  0.81268840  0.87139377  0.27357943    -0.04300
Br3664     Br  0.80509550  0.94630257  0.15164046    -0.00300
C3665       C  0.97216778  0.76349894  0.83508191     0.01100
C3666       C  0.97950726  0.74817811  0.82334295     0.03900
C3667       C  0.98979666  0.74510432  0.84246310    -0.12100
C3668       C  0.99278726  0.75720209  0.87355237     0.23200
C3669       C  0.98558852  0.77266584  0.88495786    -0.12700
C3670       C  0.97537481  0.77594132  0.86577669     0.04600
C3671       C  0.00397265  0.75500631  0.89206003     0.27100
C3672       C  0.00541776  0.74296161  0.92450223    -0.13400
C3673       C  0.01617586  0.74091885  0.94123077     0.05100
C3674       C  0.02543362  0.75160892  0.92648432    -0.09400
C3675       C  0.02370659  0.76442147  0.89520373     0.06000
C3676       C  0.01314454  0.76570640  0.87755628    -0.13700
Br3677     Br  0.98981238  0.78936738  0.92723968    -0.05800
Br3678     Br  0.97577994  0.73206618  0.77984497    -0.00200
Br3679     Br  0.01814848  0.72387029  0.98473319     0.00300
Br3680     Br  0.01126357  0.78171033  0.83239420    -0.04100
Br3681     Br  0.96572511  0.79716920  0.88340388     0.00400
Br3682     Br  0.99995675  0.72452173  0.82587396    -0.03400
Br3683     Br  0.99261663  0.72931213  0.94562603    -0.04300
Br3684     Br  0.03586195  0.77967129  0.87454692    -0.00300
C3685       C  0.93712094  0.83056469  0.72296051     0.01100
C3686       C  0.93638725  0.84691784  0.74831010     0.03900
C3687       C  0.93648680  0.86654206  0.73442625    -0.12100
C3688       C  0.93700588  0.87013460  0.69514756     0.23200
C3689       C  0.93727401  0.85404827  0.66964523    -0.12700
C3690       C  0.93720278  0.83432601  0.68332794     0.04600
C3691       C  0.93734475  0.89088651  0.68064922     0.27100
C3692       C  0.92732842  0.90064089  0.67014387    -0.13400
C3693       C  0.92768631  0.92020654  0.65590987     0.05100
C3694       C  0.93812198  0.93003843  0.65179044    -0.09400
C3695       C  0.94806578  0.92051168  0.66388754     0.06000
C3696       C  0.94770139  0.90087891  0.67756657    -0.13700
Br3697     Br  0.93821536  0.85930750  0.61581398    -0.05800
Br3698     Br  0.93457350  0.84278180  0.80232427    -0.00200
Br3699     Br  0.91385638  0.93313860  0.64110671     0.00300
Br3700     Br  0.96143314  0.88740042  0.69127651    -0.04100
Br3701     Br  0.93759277  0.81292185  0.64707601     0.00400
Br3702     Br  0.93617618  0.88871337  0.76923836    -0.03400
Br3703     Br  0.91316670  0.88684011  0.67426951    -0.04300
Br3704     Br  0.96210003  0.93482004  0.66445812    -0.00300
C3705       C  0.90497544  0.74891178  0.70467805     0.01100
C3706       C  0.89648681  0.73697567  0.72091869     0.03900
C3707       C  0.88535945  0.73815966  0.70727605    -0.12100
C3708       C  0.88266722  0.75112552  0.67713801     0.23200
C3709       C  0.89113679  0.76286618  0.66061638    -0.12700
C3710       C  0.90221981  0.76194357  0.67457085     0.04600
C3711       C  0.87083074  0.75284179  0.66383108     0.27100
C3712       C  0.86676045  0.74028424  0.63497133    -0.13400
C3713       C  0.85527388  0.74062869  0.62515128     0.05100
C3714       C  0.84773793  0.75330319  0.64466806    -0.09400
C3715       C  0.85197184  0.76655248  0.67233069     0.06000
C3716       C  0.86349868  0.76641885  0.68154214    -0.13700
Br3717     Br  0.88753509  0.77985915  0.61817891    -0.05800
Br3718     Br  0.89998733  0.71952473  0.76277090    -0.00200
Br3719     Br  0.84987256  0.72358880  0.58501064     0.00300
Br3720     Br  0.86924717  0.78414291  0.71996901    -0.04100
Br3721     Br  0.91368722  0.77795477  0.65093062     0.00400
Br3722     Br  0.87372303  0.72196926  0.72962406    -0.03400
Br3723     Br  0.87689480  0.72203683  0.61014140    -0.04300
Br3724     Br  0.84192381  0.78352217  0.70069507    -0.00300
C3725       C  0.97374321  0.76269408  0.33713981     0.01100
C3726       C  0.97588276  0.76974658  0.37451870     0.03900
C3727       C  0.98617506  0.76565044  0.39267789    -0.12100
C3728       C  0.99467731  0.75513197  0.37362464     0.23200
C3729       C  0.99271393  0.74825744  0.33631420    -0.12700
C3730       C  0.98227462  0.75192637  0.31819477     0.04600
C3731       C  0.00584221  0.75251906  0.39259840     0.27100
C3732       C  0.01405407  0.76743793  0.38915425    -0.13400
C3733       C  0.02440174  0.76583159  0.40857067     0.05100
C3734       C  0.02660819  0.74934897  0.43278581    -0.09400
C3735       C  0.01807762  0.73475519  0.43717690     0.06000
C3736       C  0.00786293  0.73622453  0.41676328    -0.13700
Br3737     Br  0.00436110  0.73372089  0.31031668    -0.05800
Br3738     Br  0.96474675  0.78460203  0.40259228    -0.00200
Br3739     Br  0.03572693  0.78562210  0.39813012     0.00300
Br3740     Br  0.99654257  0.71584387  0.42144066    -0.04100
Br3741     Br  0.97991711  0.74318940  0.26668097     0.00400
Br3742     Br  0.98867972  0.77419886  0.44442758    -0.03400
Br3743     Br  0.01107559  0.79007273  0.35688034    -0.04300
Br3744     Br  0.02011431  0.71280917  0.47183610    -0.00300
C3745       C  0.94005730  0.75727156  0.41959467     0.01100
C3746       C  0.93361797  0.76904541  0.44477015     0.03900
C3747       C  0.93541376  0.76780876  0.48419508    -0.12100
C3748       C  0.94343588  0.75449357  0.49893832     0.23200
C3749       C  0.94987456  0.74269292  0.47417891    -0.12700
C3750       C  0.94824394  0.74405456  0.43464186     0.04600
C3751       C  0.94413620  0.75153629  0.54062379     0.27100
C3752       C  0.95105170  0.76368903  0.56333028    -0.13400
C3753       C  0.95061672  0.76214218  0.60327158     0.05100
C3754       C  0.94293478  0.74893668  0.62055570    -0.09400
C3755       C  0.93607113  0.73670373  0.59741951     0.06000
C3756       C  0.93698388  0.73755812  0.55773413    -0.13700
Br3757     Br  0.96104668  0.72486727  0.49478901    -0.05800
Br3758     Br  0.92193509  0.78631362  0.42574953    -0.00200
Br3759     Br  0.96080109  0.77760204  0.63394601     0.00300
Br3760     Br  0.92819581  0.71984716  0.52636303    -0.04100
Br3761     Br  0.95790807  0.72863825  0.40172455     0.00400
Br3762     Br  0.92689639  0.78440952  0.51849191    -0.03400
Br3763     Br  0.96096768  0.78256747  0.53943052    -0.04300
Br3764     Br  0.92452340  0.71998998  0.61921456    -0.00300
C3765       C  0.93807084  0.75292059  0.11969731     0.01100
C3766       C  0.94696641  0.76228313  0.10022322     0.03900
C3767       C  0.94649534  0.76445635  0.06043420    -0.12100
C3768       C  0.93731279  0.75672868  0.03987961     0.23200
C3769       C  0.92857244  0.74693516  0.05911269    -0.12700
C3770       C  0.92889460  0.74508427  0.09884355     0.04600
C3771       C  0.93698890  0.75825919  0.99783920     0.27100
C3772       C  0.93156274  0.77443092  0.98027816    -0.13400
C3773       C  0.93122317  0.77581528  0.94039369     0.05100
C3774       C  0.93661971  0.76130182  0.91781600    -0.09400
C3775       C  0.94195260  0.74493906  0.93565321     0.06000
C3776       C  0.94188170  0.74323652  0.97548434    -0.13700
Br3777     Br  0.91621722  0.73578825  0.03061252    -0.05800
Br3778     Br  0.96023562  0.77046673  0.12751523    -0.00200
Br3779     Br  0.92286062  0.79712433  0.91689700     0.00300
Br3780     Br  0.94838966  0.72019961  0.99977111    -0.04100
Br3781     Br  0.91658692  0.73178737  0.12412686     0.00400
Br3782     Br  0.95847295  0.77778700  0.03377292    -0.03400
Br3783     Br  0.92449374  0.79454800  0.01116435    -0.04300
Br3784     Br  0.95010695  0.72541720  0.90632536    -0.00300
C3785       C  0.93726726  0.93020248  0.15801635     0.01100
C3786       C  0.93708756  0.91333084  0.13385513     0.03900
C3787       C  0.93749158  0.89400711  0.14914599    -0.12100
C3788       C  0.93778078  0.89112940  0.18866980     0.23200
C3789       C  0.93769114  0.90775290  0.21303828    -0.12700
C3790       C  0.93750609  0.92723218  0.19789052     0.04600
C3791       C  0.93827235  0.87048910  0.20413643     0.27100
C3792       C  0.92830390  0.85953012  0.20943329    -0.13400
C3793       C  0.92877139  0.83962996  0.22197717     0.05100
C3794       C  0.93926661  0.83042990  0.22905692    -0.09400
C3795       C  0.94926409  0.84133008  0.22272301     0.06000
C3796       C  0.94874589  0.86129388  0.21062245    -0.13700
Br3797     Br  0.93803613  0.90365525  0.26725839    -0.05800
Br3798     Br  0.93576784  0.91624107  0.07940766    -0.00200
Br3799     Br  0.91492323  0.82542065  0.23078733     0.00300
Br3800     Br  0.96240452  0.87605503  0.20189435    -0.04100
Br3801     Br  0.93826871  0.94954131  0.23220971     0.00400
Br3802     Br  0.93779013  0.87118570  0.11587406    -0.03400
Br3803     Br  0.91398735  0.87187865  0.19897999    -0.04300
Br3804     Br  0.96375565  0.82863944  0.22801697    -0.00300
C3805       C  0.84575090  0.75290651  0.15747991     0.01100
C3806       C  0.85404445  0.74541517  0.13261208     0.03900
C3807       C  0.86546639  0.74518498  0.14372775    -0.12100
C3808       C  0.86880219  0.75393902  0.17839332     0.23200
C3809       C  0.86060476  0.76270789  0.20189845    -0.12700
C3810       C  0.84912808  0.76136240  0.19239265     0.04600
C3811       C  0.88079006  0.75304847  0.19126467     0.27100
C3812       C  0.88411840  0.73893258  0.21866844    -0.13400
C3813       C  0.89537594  0.73812480  0.23138942     0.05100
C3814       C  0.90359218  0.75096137  0.21577805    -0.09400
C3815       C  0.90018206  0.76512766  0.18813142     0.06000
C3816       C  0.88881361  0.76639320  0.17665633    -0.13700
Br3817     Br  0.86512980  0.77619150  0.24777514    -0.05800
Br3818     Br  0.84979202  0.73601993  0.08291143    -0.00200
Br3819     Br  0.89935874  0.71975218  0.27127309     0.00300
Br3820     Br  0.88414234  0.78636410  0.14054883    -0.04100
Br3821     Br  0.83809897  0.76909075  0.22953926     0.00400
Br3822     Br  0.87648191  0.73197250  0.11248581    -0.03400
Br3823     Br  0.87318883  0.72034034  0.23814987    -0.04300
Br3824     Br  0.91108200  0.78183704  0.16298099    -0.00300
C3825       C  0.81160964  0.18380344  0.81586888     0.01100
C3826       C  0.80685404  0.17218328  0.84508431     0.03900
C3827       C  0.80669389  0.15137316  0.84201352    -0.12100
C3828       C  0.81114485  0.14211281  0.80948071     0.23200
C3829       C  0.81545878  0.15377367  0.77953113    -0.12700
C3830       C  0.81567027  0.17463943  0.78270474     0.04600
C3831       C  0.81130867  0.12010085  0.80697764     0.27100
C3832       C  0.82040231  0.10927356  0.82225303    -0.13400
C3833       C  0.82058932  0.08838899  0.81950840     0.05100
C3834       C  0.81169559  0.07830699  0.80146892    -0.09400
C3835       C  0.80241920  0.08911790  0.78747074     0.06000
C3836       C  0.80228812  0.10998760  0.78981155    -0.13700
Br3837     Br  0.82140377  0.14104941  0.73481105    -0.05800
Br3838     Br  0.80039421  0.18486172  0.88919930    -0.00200
Br3839     Br  0.83292893  0.07351016  0.84075452     0.00300
Br3840     Br  0.79001189  0.12489071  0.76803041    -0.04100
Br3841     Br  0.82197964  0.19065293  0.74262314     0.00400
Br3842     Br  0.80066095  0.13544067  0.88277106    -0.03400
Br3843     Br  0.83274589  0.12321238  0.84572771    -0.04300
Br3844     Br  0.79008181  0.07534541  0.76363260    -0.00300
C3845       C  0.80934223  0.18069113  0.32025945     0.01100
C3846       C  0.80288070  0.17040883  0.34754350     0.03900
C3847       C  0.80131813  0.14971473  0.34453803    -0.12100
C3848       C  0.80636832  0.13909117  0.31459303     0.23200
C3849       C  0.81257350  0.14944403  0.28670583    -0.12700
C3850       C  0.81407327  0.17019685  0.28958861     0.04600
C3851       C  0.80638775  0.11693247  0.31515152     0.27100
C3852       C  0.81551390  0.10681173  0.33193628    -0.13400
C3853       C  0.81607579  0.08592748  0.33059264     0.05100
C3854       C  0.80746587  0.07500520  0.31281335    -0.09400
C3855       C  0.79795076  0.08499562  0.29842835     0.06000
C3856       C  0.79748542  0.10594939  0.29903469    -0.13700
Br3857     Br  0.81953275  0.13492563  0.24576926    -0.05800
Br3858     Br  0.79660198  0.18461076  0.39017831    -0.00200
Br3859     Br  0.82864189  0.07216383  0.35310510     0.00300
Br3860     Br  0.78499406  0.11962865  0.27595697    -0.04100
Br3861     Br  0.82334543  0.18406848  0.25339326     0.00400
Br3862     Br  0.79277642  0.13564598  0.38255771    -0.03400
Br3863     Br  0.82747219  0.12172778  0.35553195    -0.04300
Br3864     Br  0.78585956  0.06990326  0.27601536    -0.00300
C3865       C  0.81220281  0.25493327  0.49700429     0.01100
C3866       C  0.80452147  0.26817840  0.51419428     0.03900
C3867       C  0.80466539  0.27091018  0.55391443    -0.12100
C3868       C  0.81246404  0.26042500  0.57650278     0.23200
C3869       C  0.82027329  0.24756724  0.55931568    -0.12700
C3870       C  0.82017480  0.24481856  0.51978857     0.04600
C3871       C  0.81218911  0.26194045  0.61856185     0.27100
C3872       C  0.81963496  0.27477608  0.63766777    -0.13400
C3873       C  0.81995921  0.27498707  0.67762595     0.05100
C3874       C  0.81274426  0.26255267  0.69868473    -0.09400
C3875       C  0.80527858  0.24969777  0.67949379     0.06000
C3876       C  0.80506955  0.24931651  0.63952769    -0.13700
Br3877     Br  0.83104114  0.23345926  0.59036288    -0.05800
Br3878     Br  0.79335835  0.28163668  0.48382391    -0.00200
Br3879     Br  0.83059019  0.29178584  0.70367151     0.00300
Br3880     Br  0.79509157  0.23139441  0.61317212    -0.04100
Br3881     Br  0.83130136  0.22749868  0.49722388     0.00400
Br3882     Br  0.79407098  0.28868388  0.57770785    -0.03400
Br3883     Br  0.82944190  0.29192139  0.60891682    -0.04300
Br3884     Br  0.79494972  0.23322231  0.70767782    -0.00300
C3885       C  0.80748127  0.25151866  0.99654866     0.01100
C3886       C  0.81547987  0.24169902  0.01964999     0.03900
C3887       C  0.81488620  0.24327048  0.05931343    -0.12100
C3888       C  0.80654696  0.25512328  0.07632528     0.23200
C3889       C  0.79848538  0.26482512  0.05350976    -0.12700
C3890       C  0.79879439  0.26265311  0.01365363     0.04600
C3891       C  0.80666078  0.25754101  0.11823609     0.27100
C3892       C  0.80089364  0.24393914  0.14154348    -0.13400
C3893       C  0.80249988  0.24421887  0.18122019     0.05100
C3894       C  0.80987333  0.25823616  0.19777488    -0.09400
C3895       C  0.81538236  0.27220345  0.17425658     0.06000
C3896       C  0.81367660  0.27197169  0.13473063    -0.13700
Br3897     Br  0.78715090  0.28117862  0.07701847    -0.05800
Br3898     Br  0.82768107  0.22664680  0.99741879    -0.00200
Br3899     Br  0.79411562  0.22603015  0.21271049     0.00300
Br3900     Br  0.82083463  0.29157100  0.10283682    -0.04100
Br3901     Br  0.78692708  0.27368594  0.98283658     0.00400
Br3902     Br  0.82564156  0.22931318  0.09068167    -0.03400
Br3903     Br  0.79060173  0.22527896  0.11878032    -0.04300
Br3904     Br  0.82563134  0.29133244  0.19590880    -0.00300
C3905       C  0.02699239  0.24862681  0.67160432     0.01100
C3906       C  0.01772377  0.23647825  0.68132092     0.03900
C3907       C  0.00724026  0.23920735  0.66319195    -0.12100
C3908       C  0.00597024  0.25376583  0.63471286     0.23200
C3909       C  0.01512362  0.26593429  0.62503339    -0.12700
C3910       C  0.02555938  0.26349562  0.64332002     0.04600
C3911       C  0.99490272  0.25679964  0.61569496     0.27100
C3912       C  0.99238053  0.24714950  0.58117913    -0.13400
C3913       C  0.98187352  0.25020299  0.56328331     0.05100
C3914       C  0.97374599  0.26273295  0.58016079    -0.09400
C3915       C  0.97638052  0.27235374  0.61493868     0.06000
C3916       C  0.98697735  0.26972452  0.63200131    -0.13700
Br3917     Br  0.01333102  0.28577528  0.58581017    -0.05800
Br3918     Br  0.01922069  0.21625977  0.71984336    -0.00200
Br3919     Br  0.97884388  0.23782754  0.51502146     0.00300
Br3920     Br  0.99076720  0.28396393  0.67790521    -0.04100
Br3921     Br  0.03798019  0.27973448  0.62636467     0.00400
Br3922     Br  0.99452128  0.22299964  0.67711159    -0.03400
Br3923     Br  0.00346394  0.22992133  0.55845647    -0.04300
Br3924     Br  0.96531644  0.28811130  0.64158379    -0.00300
C3925       C  0.94030532  0.18251275  0.54866001     0.01100
C3926       C  0.93341039  0.17343868  0.57603423     0.03900
C3927       C  0.93300744  0.15258462  0.57869697    -0.12100
C3928       C  0.93963744  0.14075442  0.55432360     0.23200
C3929       C  0.94673838  0.14986612  0.52748402    -0.12700
C3930       C  0.94705140  0.17072643  0.52462835     0.04600
C3931       C  0.93932560  0.11877889  0.55807090     0.27100
C3932       C  0.94602230  0.10944838  0.58581657    -0.13400
C3933       C  0.94473479  0.08904676  0.59312825     0.05100
C3934       C  0.93684761  0.07783506  0.57241007    -0.09400
C3935       C  0.93047504  0.08693098  0.54352983     0.06000
C3936       C  0.93178368  0.10738953  0.53611752    -0.13700
Br3937     Br  0.95568434  0.13370276  0.49383008    -0.05800
Br3938     Br  0.92424394  0.18969194  0.60883417    -0.00200
Br3939     Br  0.95344763  0.07653219  0.63272125     0.00300
Br3940     Br  0.92317381  0.11993816  0.49639080    -0.04100
Br3941     Br  0.95643492  0.18329141  0.48692513     0.00400
Br3942     Br  0.92299824  0.14011295  0.61457910    -0.03400
Br3943     Br  0.95682645  0.12481498  0.61418275    -0.04300
Br3944     Br  0.91966949  0.07150169  0.51539466    -0.00300
C3945       C  0.90473862  0.25055801  0.45808000     0.01100
C3946       C  0.89677080  0.23889254  0.47768478     0.03900
C3947       C  0.88543683  0.23893872  0.46621152    -0.12100
C3948       C  0.88200951  0.25060023  0.43506904     0.23200
C3949       C  0.88985418  0.26277030  0.41624038    -0.12700
C3950       C  0.90118674  0.26287471  0.42780375     0.04600
C3951       C  0.87009285  0.25030060  0.42254495     0.27100
C3952       C  0.86645834  0.23635295  0.39535150    -0.13400
C3953       C  0.85508400  0.23581090  0.38423062     0.05100
C3954       C  0.84727017  0.24903801  0.40071625    -0.09400
C3955       C  0.85098627  0.26317756  0.42761748     0.06000
C3956       C  0.86236746  0.26379463  0.43839472    -0.13700
Br3957     Br  0.88503411  0.27893728  0.37398018    -0.05800
Br3958     Br  0.90132418  0.22324153  0.52099905    -0.00200
Br3959     Br  0.85027157  0.21732833  0.34564405     0.00300
Br3960     Br  0.86739311  0.28264175  0.47604184    -0.04100
Br3961     Br  0.91186322  0.27912098  0.40050100     0.00400
Br3962     Br  0.87455042  0.22288477  0.49280587    -0.03400
Br3963     Br  0.87706472  0.21767899  0.37422253    -0.04300
Br3964     Br  0.84043646  0.28092128  0.45193129    -0.00300
C3965       C  0.97389039  0.25719436  0.07881233     0.01100
C3966       C  0.98100420  0.24199667  0.06465577     0.03900
C3967       C  0.99171361  0.23854822  0.08128440    -0.12100
C3968       C  0.99514381  0.24928774  0.11375710     0.23200
C3969       C  0.98788086  0.26377538  0.12888399    -0.12700
C3970       C  0.97751846  0.26811133  0.11113432     0.04600
C3971       C  0.00665905  0.24671091  0.13078196     0.27100
C3972       C  0.00854131  0.23357991  0.16145469    -0.13400
C3973       C  0.01919991  0.23269238  0.17945904     0.05100
C3974       C  0.02805702  0.24528702  0.16765363    -0.09400
C3975       C  0.02603651  0.25862951  0.13720592     0.06000
C3976       C  0.01551510  0.25902993  0.11857467    -0.13700
Br3977     Br  0.99222969  0.27768918  0.17457905    -0.05800
Br3978     Br  0.97629520  0.22620894  0.02183802    -0.00200
Br3979     Br  0.02153493  0.21472979  0.22139482     0.00300
Br3980     Br  0.01317953  0.27633872  0.07551802    -0.04100
Br3981     Br  0.96824675  0.28874208  0.13301173    -0.12400
Br3982     Br  0.00189672  0.21953140  0.05907164    -0.03400
Br3983     Br  0.99642716  0.21690447  0.17883164    -0.04300
Br3984     Br  0.03774573  0.27599059  0.11922022    -0.00300
C3985       C  0.93835283  0.18115981  0.04032068     0.01100
C3986       C  0.93352985  0.17181509  0.07210816     0.03900
C3987       C  0.93389326  0.15096392  0.07530536    -0.12100
C3988       C  0.93901278  0.13945723  0.04657879     0.23200
C3989       C  0.94381867  0.14886293  0.01478609    -0.12700
C3990       C  0.94351251  0.16968112  0.01172229     0.04600
C3991       C  0.93893204  0.11744351  0.04932977     0.27100
C3992       C  0.94795180  0.10737786  0.06673645    -0.13400
C3993       C  0.94721916  0.08680070  0.07352288     0.05100
C3994       C  0.93752763  0.07621382  0.06251341    -0.09400
C3995       C  0.92884718  0.08606355  0.04288876     0.06000
C3996       C  0.92953970  0.10666145  0.03631587    -0.13700
Br3997     Br  0.95036015  0.13313377  0.97470877    -0.05800
Br3998     Br  0.92573966  0.18748066  0.10966604    -0.00200
Br3999     Br  0.95915065  0.07336963  0.10025233     0.00300
Br4000     Br  0.91747974  0.12034170  0.01064569    -0.04100
Br4001     Br  0.94994651  0.18258600  0.96780391     0.00400
Br4002     Br  0.92692701  0.13801000  0.11811362    -0.03400
Br4003     Br  0.96109268  0.12199635  0.08250256    -0.04300
Br4004     Br  0.91595472  0.07129102  0.02562241    -0.00300
C4005       C  0.93706561  0.26199017  0.66171427     0.01100
C4006       C  0.94288017  0.24670781  0.68134056     0.03900
C4007       C  0.94276174  0.24608690  0.72131411    -0.12100
C4008       C  0.93705579  0.26081448  0.74214644     0.23200
C4009       C  0.93095958  0.27566405  0.72291394    -0.12700
C4010       C  0.93091028  0.27623950  0.68288730     0.04600
C4011       C  0.93721817  0.26011229  0.78434890     0.27100
C4012       C  0.92831593  0.25094193  0.80391403    -0.13400
C4013       C  0.92877946  0.24889794  0.84357574     0.05100
C4014       C  0.93836114  0.25533125  0.86390098    -0.09400
C4015       C  0.94734112  0.26429002  0.84429264     0.06000
C4016       C  0.94661923  0.26721468  0.80470597    -0.13700
Br4017     Br  0.92261864  0.29513001  0.75172617    -0.05800
Br4018     Br  0.95169931  0.22712456  0.65439192    -0.00200
Br4019     Br  0.91615012  0.23722957  0.86975587     0.00300
Br4020     Br  0.95854583  0.28068498  0.77808293    -0.04100
Br4021     Br  0.92199089  0.29623321  0.65748343     0.00400
Br4022     Br  0.95041778  0.22494326  0.74802188    -0.03400
Br4023     Br  0.91561842  0.24059469  0.77606045    -0.04300
Br4024     Br  0.96100111  0.27076013  0.87100331    -0.00300
C4025       C  0.93764478  0.25639750  0.16194633     0.01100
C4026       C  0.93238258  0.27113465  0.18428184     0.03900
C4027       C  0.93299400  0.27010146  0.22400641    -0.12100
C4028       C  0.93837423  0.25386207  0.24142326     0.23200
C4029       C  0.94283919  0.23835496  0.21927823    -0.12700
C4030       C  0.94265248  0.23972193  0.17952426     0.04600
C4031       C  0.93888434  0.25261688  0.28318377     0.27100
C4032       C  0.94833731  0.25982173  0.30292127    -0.13400
C4033       C  0.94868380  0.25879228  0.34282144     0.05100
C4034       C  0.93974195  0.24990256  0.36280768    -0.09400
C4035       C  0.93047481  0.24196432  0.34257550     0.06000
C4036       C  0.92996956  0.24371715  0.30294144    -0.13700
Br4037     Br  0.94928811  0.21533137  0.24370547    -0.05800
Br4038     Br  0.92383574  0.29221204  0.16060757    -0.00200
Br4039     Br  0.96172096  0.26826925  0.36977107     0.00300
Br4040     Br  0.91714595  0.23365441  0.27521322    -0.04100
Br4041     Br  0.94988667  0.21923003  0.14984364     0.00400
Br4042     Br  0.92653745  0.29093380  0.25474190    -0.03400
Br4043     Br  0.96093771  0.27036225  0.27494154    -0.04300
Br4044     Br  0.91835272  0.22850060  0.36844654    -0.00300
C4045       C  0.84546693  0.25239006  0.90782092     0.01100
C4046       C  0.85364376  0.24064149  0.88936819     0.03900
C4047       C  0.86503959  0.24198816  0.90004432    -0.12100
C4048       C  0.86830495  0.25449344  0.93023218     0.23200
C4049       C  0.86017559  0.26648567  0.94827571    -0.12700
C4050       C  0.84882702  0.26569181  0.93670644     0.04600
C4051       C  0.88024571  0.25454059  0.94336724     0.27100
C4052       C  0.88426916  0.23893600  0.96635029    -0.13400
C4053       C  0.89579409  0.23764051  0.97542305     0.05100
C4054       C  0.90339529  0.25241774  0.96272868    -0.09400
C4055       C  0.89919275  0.26867273  0.94137834     0.06000
C4056       C  0.88770368  0.26953176  0.93135820    -0.13700
Br4057     Br  0.86457825  0.28359482  0.98959222    -0.05800
Br4058     Br  0.84928291  0.22297199  0.84880453    -0.00200
Br4059     Br  0.90103001  0.21544836  0.00546709     0.00300
Br4060     Br  0.88218836  0.29077222  0.89954333    -0.04100
Br4061     Br  0.83781933  0.28215747  0.96191531     0.00400
Br4062     Br  0.87627446  0.22681973  0.87311940    -0.03400
Br4063     Br  0.87389534  0.21917060  0.98507033    -0.04300
Br4064     Br  0.90919111  0.28909837  0.92287618    -0.00300
C4065       C  0.81022928  0.57633885  0.55313206     0.01100
C4066       C  0.81744876  0.58580261  0.57910265     0.03900
C4067       C  0.81742858  0.60672232  0.58229517    -0.12100
C4068       C  0.81039154  0.61833113  0.55872498     0.23200
C4069       C  0.80302041  0.60876331  0.53322554    -0.12700
C4070       C  0.80285499  0.58785291  0.53078400     0.04600
C4071       C  0.81067870  0.64054099  0.56072443     0.27100
C4072       C  0.80242232  0.65088124  0.58160438    -0.13400
C4073       C  0.80265661  0.67182025  0.58366990     0.05100
C4074       C  0.81125751  0.68263670  0.56543555    -0.09400
C4075       C  0.81938622  0.67234374  0.54387278     0.06000
C4076       C  0.81909542  0.65138028  0.54145920    -0.13700
Br4077     Br  0.79351107  0.62439445  0.50037467    -0.05800
Br4078     Br  0.82770316  0.56998938  0.60891623    -0.00200
Br4079     Br  0.79148140  0.68572289  0.61315362     0.00300
Br4080     Br  0.83038762  0.63740586  0.51258355    -0.04100
Br4081     Br  0.79281601  0.57483920  0.49567145     0.00400
Br4082     Br  0.82722856  0.61953051  0.61830477    -0.03400
Br4083     Br  0.79109383  0.63617866  0.60890153    -0.04300
Br4084     Br  0.83086847  0.68709723  0.51750902    -0.00300
C4085       C  0.81390799  0.33013339  0.39098301     0.01100
C4086       C  0.82451606  0.33957017  0.39344330     0.03900
C4087       C  0.82543566  0.35893377  0.40877150    -0.12100
C4088       C  0.81582560  0.36887520  0.42257494     0.23200
C4089       C  0.80527481  0.35939639  0.42053208    -0.12700
C4090       C  0.80430629  0.34017575  0.40483553     0.04600
C4091       C  0.81661847  0.38944185  0.43861573     0.27100
C4092       C  0.81802214  0.39235257  0.47795997    -0.13400
C4093       C  0.81737186  0.41164897  0.49363986     0.05100
C4094       C  0.81509008  0.42828643  0.47015209    -0.09400
C4095       C  0.81420437  0.42535264  0.43044125     0.06000
C4096       C  0.81512179  0.40607864  0.41483624    -0.13700
Br4097     Br  0.79206979  0.37305958  0.43881608    -0.05800
Br4098     Br  0.83776965  0.32641218  0.37425277    -0.00200
Br4099     Br  0.82008411  0.41519363  0.54730152     0.00300
Br4100     Br  0.81418037  0.40225159  0.36063906    -0.04100
Br4101     Br  0.78981109  0.32733267  0.40387378     0.00400
Br4102     Br  0.83977899  0.37225375  0.40973475    -0.03400
Br4103     Br  0.82077324  0.36972152  0.51031928    -0.04300
Br4104     Br  0.81093912  0.44730752  0.39707581    -0.00300
C4105       C  0.80866187  0.57796508  0.05167855     0.01100
C4106       C  0.81586753  0.58785068  0.07710209     0.03900
C4107       C  0.81512694  0.60864926  0.08132391    -0.12100
C4108       C  0.80724525  0.61959485  0.05977955     0.23200
C4109       C  0.79976849  0.60955566  0.03545114    -0.12700
C4110       C  0.80044017  0.58877895  0.03157766     0.04600
C4111       C  0.80693429  0.64166429  0.06219066     0.27100
C4112       C  0.80059764  0.65102221  0.09082459    -0.13400
C4113       C  0.80078236  0.67184178  0.09428918     0.05100
C4114       C  0.80758156  0.68338513  0.06997703    -0.09400
C4115       C  0.81336173  0.67417296  0.03986976     0.06000
C4116       C  0.81298200  0.65332062  0.03583775    -0.13700
Br4117     Br  0.78886504  0.62444272  0.00652298    -0.05800
Br4118     Br  0.82687465  0.57284316  0.10531476    -0.00200
Br4119     Br  0.79172865  0.68474292  0.13254514     0.00300
Br4120     Br  0.82105625  0.64055939  0.99510564    -0.04100
Br4121     Br  0.79031992  0.57507289  0.99775356     0.00400
Br4122     Br  0.82509588  0.62226208  0.11574826    -0.03400
Br4123     Br  0.79202035  0.63520814  0.12614561    -0.04300
Br4124     Br  0.82220737  0.69003110  0.00550413    -0.00300
C4125       C  0.81376292  0.49772522  0.66560944     0.01100
C4126       C  0.80506715  0.50847022  0.68356814     0.03900
C4127       C  0.80454393  0.50938464  0.72337566    -0.12100
C4128       C  0.81258510  0.49930742  0.74554987     0.23200
C4129       C  0.82127260  0.48850015  0.72771435    -0.12700
C4130       C  0.82191819  0.48785917  0.68776819     0.04600
C4131       C  0.81213090  0.50104644  0.78756489     0.27100
C4132       C  0.81887137  0.51522946  0.80593983    -0.13400
C4133       C  0.81811966  0.51775012  0.84548922     0.05100
C4134       C  0.81003192  0.50695404  0.86682144    -0.09400
C4135       C  0.80314073  0.49295668  0.84803738     0.06000
C4136       C  0.80445516  0.48959460  0.80876085    -0.13700
Br4137     Br  0.83216947  0.47443947  0.75815069    -0.05800
Br4138     Br  0.79345636  0.52116928  0.65388903    -0.00200
Br4139     Br  0.82880169  0.53526213  0.86985454     0.00300
Br4140     Br  0.79573253  0.46934189  0.78362609    -0.04100
Br4141     Br  0.83414581  0.47402616  0.66333092     0.00400
Br4142     Br  0.79275085  0.52444295  0.74774518    -0.03400
Br4143     Br  0.82902810  0.53149736  0.77644544    -0.04300
Br4144     Br  0.79134871  0.47933069  0.87516699    -0.00300
C4145       C  0.81070814  0.50017113  0.16626316     0.01100
C4146       C  0.80384203  0.51468192  0.18384936     0.03900
C4147       C  0.80329437  0.51583357  0.22368284    -0.12100
C4148       C  0.80954787  0.50253741  0.24615436     0.23200
C4149       C  0.81649609  0.48822426  0.22885451    -0.12700
C4150       C  0.81705992  0.48697541  0.18901481     0.04600
C4151       C  0.80943598  0.50452255  0.28802867     0.27100
C4152       C  0.81762149  0.51638514  0.30570157    -0.13400
C4153       C  0.81789773  0.51791419  0.34541545     0.05100
C4154       C  0.80971863  0.50805821  0.36769607    -0.09400
C4155       C  0.80121233  0.49689844  0.34984867     0.06000
C4156       C  0.80119516  0.49483003  0.31004123    -0.13700
Br4157     Br  0.82532919  0.47051892  0.26008962    -0.05800
Br4158     Br  0.79458469  0.53233324  0.15388455    -0.00200
Br4159     Br  0.82979216  0.53314025  0.36885036     0.00300
Br4160     Br  0.78984915  0.47896259  0.28545247    -0.04100
Br4161     Br  0.82684524  0.46754491  0.16586815     0.00400
Br4162     Br  0.79398212  0.53565154  0.24785073    -0.03400
Br4163     Br  0.82839127  0.53072925  0.27511400    -0.04300
Br4164     Br  0.78915220  0.48577592  0.37962153    -0.00300
C4165       C  0.80880963  0.42990462  0.97174748     0.01100
C4166       C  0.81928958  0.42055680  0.96539693     0.03900
C4167       C  0.81972811  0.40129990  0.94975286    -0.12100
C4168       C  0.80972079  0.39111398  0.94093656     0.23200
C4169       C  0.79926344  0.40041396  0.94710669    -0.12700
C4170       C  0.79879237  0.41978264  0.96222188     0.04600
C4171       C  0.81017677  0.37066100  0.92487175     0.27100
C4172       C  0.81065262  0.36790996  0.88532541    -0.13400
C4173       C  0.81115123  0.34859931  0.86996603     0.05100
C4174       C  0.81051427  0.33172215  0.89400862    -0.09400
C4175       C  0.81002990  0.33461731  0.93383555     0.06000
C4176       C  0.81002947  0.35400938  0.94909425    -0.13700
Br4177     Br  0.78558391  0.38649474  0.93458388    -0.05800
Br4178     Br  0.83308342  0.43351784  0.98024989    -0.00200
Br4179     Br  0.81344728  0.34561467  0.81594557     0.00300
Br4180     Br  0.80957309  0.35796413  0.00336451    -0.04100
Br4181     Br  0.78439119  0.43267366  0.96819651     0.00400
Br4182     Br  0.83404283  0.38868565  0.94056675    -0.03400
Br4183     Br  0.81035925  0.39079263  0.85223130    -0.04300
Br4184     Br  0.80873046  0.31237069  0.96803994    -0.00300
C4185       C  0.96796406  0.49531950  0.78437206     0.01100
C4186       C  0.97688594  0.50511723  0.80293975     0.03900
C4187       C  0.98738764  0.50731699  0.78460870    -0.12100
C4188       C  0.98885030  0.50089326  0.74674916     0.23200
C4189       C  0.97980579  0.49185778  0.72764629    -0.12700
C4190       C  0.96956083  0.48846166  0.74668255     0.04600
C4191       C  0.00003650  0.50291624  0.72764811     0.27100
C4192       C  0.00265500  0.51996556  0.70623132    -0.13400
C4193       C  0.01343603  0.52222812  0.68978534     0.05100
C4194       C  0.02195413  0.50773928  0.69587014    -0.09400
C4195       C  0.01915821  0.49053084  0.71746652     0.06000
C4196       C  0.00819929  0.48796879  0.73213496    -0.13700
Br4197     Br  0.98141679  0.48449709  0.67495547    -0.05800
Br4198     Br  0.97484098  0.51502656  0.85381849    -0.00200
Br4199     Br  0.01629579  0.54531588  0.65870070     0.00300
Br4200     Br  0.00434629  0.46417188  0.75998787    -0.04100
Br4201     Br  0.95769123  0.47472269  0.72007457     0.00400
Br4202     Br  0.99989931  0.51890616  0.81139744    -0.03400
Br4203     Br  0.99144632  0.54051685  0.70060057    -0.04300
Br4204     Br  0.03042021  0.47123208  0.73179460    -0.00300
C4205       C  0.93881543  0.57759210  0.82766441     0.01100
C4206       C  0.94709984  0.58903613  0.84612369     0.03900
C4207       C  0.94741688  0.60976231  0.84106961    -0.12100
C4208       C  0.93921607  0.61921496  0.81856579     0.23200
C4209       C  0.93111248  0.60771066  0.79924818    -0.12700
C4210       C  0.93102574  0.58687590  0.80338422     0.04600
C4211       C  0.93924069  0.64122175  0.81490779     0.27100
C4212       C  0.93349846  0.65316512  0.84158513    -0.13400
C4213       C  0.93353393  0.67403637  0.83777751     0.05100
C4214       C  0.93890716  0.68288633  0.80643451    -0.09400
C4215       C  0.94490235  0.67097325  0.78047023     0.06000
C4216       C  0.94519458  0.65022723  0.78497898    -0.13700
Br4217     Br  0.91988991  0.62060458  0.76836452    -0.05800
Br4218     Br  0.95779577  0.57628022  0.87939928    -0.00200
Br4219     Br  0.92603643  0.69048152  0.87475139     0.00300
Br4220     Br  0.95362249  0.63401933  0.74989169    -0.04100
Br4221     Br  0.91999182  0.57099536  0.77721355     0.00400
Br4222     Br  0.95894494  0.62535773  0.86544969    -0.03400
Br4223     Br  0.92525156  0.64082334  0.88238124    -0.04300
Br4224     Br  0.95269365  0.68320678  0.73845073    -0.00300
C4225       C  0.93886677  0.33069524  0.97712763     0.01100
C4226       C  0.94070435  0.33478044  0.93836687     0.03900
C4227       C  0.93967162  0.35430018  0.92464150    -0.12100
C4228       C  0.93740060  0.37000829  0.94991658     0.23200
C4229       C  0.93566266  0.36604936  0.98873242    -0.12700
C4230       C  0.93603969  0.34634326  0.00211333     0.04600
C4231       C  0.93698270  0.39066617  0.93542531     0.27100
C4232       C  0.94706067  0.40112208  0.92896923    -0.13400
C4233       C  0.94675795  0.42009773  0.91237855     0.05100
C4234       C  0.93640496  0.42849343  0.90153118    -0.09400
C4235       C  0.92627105  0.41854567  0.90994801     0.06000
C4236       C  0.92656797  0.39959652  0.92681435    -0.13700
Br4237     Br  0.93290633  0.38771860  0.02341560    -0.05800
Br4238     Br  0.94521374  0.31391181  0.90420329    -0.00200
Br4239     Br  0.96044584  0.43518148  0.90660884     0.00300
Br4240     Br  0.91275745  0.38567486  0.93764746    -0.04100
Br4241     Br  0.93194834  0.34071127  0.05403505     0.00400
Br4242     Br  0.94131277  0.35959041  0.87105206    -0.03400
Br4243     Br  0.96127559  0.38937746  0.94285636    -0.04300
Br4244     Br  0.91200396  0.43064401  0.89765512    -0.00300
C4245       C  0.90231170  0.50735984  0.91398662     0.01100
C4246       C  0.89853937  0.49586330  0.94514544     0.03900
C4247       C  0.88700711  0.49461571  0.95353288    -0.12100
C4248       C  0.87916450  0.50488845  0.93106176     0.23200
C4249       C  0.88279130  0.51563956  0.89901364    -0.12700
C4250       C  0.89434209  0.51697035  0.89054932     0.04600
C4251       C  0.86720540  0.50555407  0.94277450     0.27100
C4252       C  0.85944481  0.49186949  0.92785106    -0.13400
C4253       C  0.84797077  0.49353670  0.93705667     0.05100
C4254       C  0.84434990  0.50814357  0.96329127    -0.09400
C4255       C  0.85230104  0.52093986  0.98013028     0.06000
C4256       C  0.86363541  0.52002312  0.96903308    -0.13700
Br4257     Br  0.87185985  0.52874685  0.86716570    -0.05800
Br4258     Br  0.90905716  0.48302636  0.97864398    -0.00200
Br4259     Br  0.83725156  0.47687287  0.91093731     0.00300
Br4260     Br  0.87430557  0.53882664  0.98927855    -0.04100
Br4261     Br  0.89916813  0.53170148  0.84643898     0.00400
Br4262     Br  0.88185448  0.47932464  0.99659117    -0.03400
Br4263     Br  0.86461040  0.47097039  0.89462964    -0.04300
Br4264     Br  0.84778758  0.53924589  0.01951926    -0.00300
C4265       C  0.02956341  0.50854912  0.21280726     0.01100
C4266       C  0.02164502  0.49694265  0.19283558     0.03900
C4267       C  0.01127602  0.49202191  0.20986816    -0.12100
C4268       C  0.00847397  0.49971910  0.24591544     0.23200
C4269       C  0.01628020  0.51159665  0.26554306    -0.12700
C4270       C  0.02686953  0.51560570  0.24957127     0.04600
C4271       C  0.99698649  0.49709989  0.26196892     0.27100
C4272       C  0.98838430  0.51017326  0.25068890    -0.13400
C4273       C  0.97786341  0.50974423  0.26894085     0.05100
C4274       C  0.97559039  0.49540794  0.29746709    -0.09400
C4275       C  0.98417517  0.48191989  0.30796650     0.06000
C4276       C  0.99489642  0.48304074  0.29080798    -0.13700
Br4277     Br  0.01235453  0.52259003  0.31445236    -0.05800
Br4278     Br  0.02461476  0.48904357  0.14114536    -0.00200
Br4279     Br  0.96659415  0.52866943  0.25312618     0.00300
Br4280     Br  0.00682672  0.46550158  0.30685890    -0.04100
Br4281     Br  0.03778962  0.52998271  0.27951058     0.00400
Br4282     Br  0.00088728  0.47470549  0.18403284    -0.03400
Br4283     Br  0.99107204  0.52868518  0.20967683    -0.04300
Br4284     Br  0.98143879  0.46236183  0.34683857    -0.00300
C4285       C  0.94323569  0.68171270  0.29988960     0.01100
C4286       C  0.93785658  0.67147849  0.32951807     0.03900
C4287       C  0.93916927  0.65077638  0.33291614    -0.12100
C4288       C  0.94601862  0.64030153  0.30695400     0.23200
C4289       C  0.95184824  0.65073228  0.27840810    -0.12700
C4290       C  0.95039171  0.67141234  0.27473625     0.04600
C4291       C  0.94608255  0.61823103  0.30764529     0.27100
C4292       C  0.95486754  0.60766870  0.32546325    -0.13400
C4293       C  0.95393184  0.58697585  0.33081302     0.05100
C4294       C  0.94413588  0.57694887  0.31892621    -0.09400
C4295       C  0.93569770  0.58733519  0.29914075     0.06000
C4296       C  0.93677051  0.60785903  0.29286779    -0.13700
Br4297     Br  0.96127831  0.63649731  0.24308824    -0.05800
Br4298     Br  0.92828422  0.68581237  0.36421601    -0.00200
Br4299     Br  0.96565105  0.57261227  0.35700046     0.00300
Br4300     Br  0.92528878  0.62201083  0.26509528    -0.04100
Br4301     Br  0.95775904  0.68558287  0.23412356     0.00400
Br4302     Br  0.93102610  0.63654885  0.37172774    -0.03400
Br4303     Br  0.96789611  0.62168310  0.34398077    -0.04300
Br4304     Br  0.92250372  0.57349082  0.28158076    -0.00300
C4305       C  0.93123604  0.50282119  0.71001037     0.01100
C4306       C  0.93839812  0.51679084  0.69214931     0.03900
C4307       C  0.93919750  0.51743270  0.65222691    -0.12100
C4308       C  0.93288091  0.50423015  0.62973304     0.23200
C4309       C  0.92551073  0.49067769  0.64724052    -0.12700
C4310       C  0.92471635  0.48989424  0.68717337     0.04600
C4311       C  0.93394358  0.50494419  0.58760844     0.27100
C4312       C  0.92764441  0.51890030  0.56684740    -0.13400
C4313       C  0.92912025  0.52067339  0.52737046     0.05100
C4314       C  0.93718554  0.50875897  0.50824417    -0.09400
C4315       C  0.94336953  0.49450153  0.52911821     0.06000
C4316       C  0.94163961  0.49247344  0.56859429    -0.13700
Br4317     Br  0.91666809  0.47294991  0.61625190    -0.05800
Br4318     Br  0.94801249  0.53390326  0.72183343    -0.00200
Br4319     Br  0.91947562  0.53886511  0.49989074     0.00300
Br4320     Br  0.94987633  0.47273591  0.59699552    -0.04100
Br4321     Br  0.91465640  0.47095202  0.71041593     0.00400
Br4322     Br  0.94930580  0.53593832  0.62793808    -0.03400
Br4323     Br  0.91695390  0.53567767  0.59289407    -0.04300
Br4324     Br  0.95468127  0.47847559  0.50443899    -0.00300
C4325       C  0.94189395  0.49763949  0.20944361     0.01100
C4326       C  0.94977460  0.48603386  0.18895489     0.03900
C4327       C  0.95017513  0.48703474  0.14915398    -0.12100
C4328       C  0.94246328  0.49900062  0.12932236     0.23200
C4329       C  0.93485785  0.51113618  0.14958954    -0.12700
C4330       C  0.93470698  0.51072699  0.18961649     0.04600
C4331       C  0.94256441  0.49905205  0.08714822     0.27100
C4332       C  0.94756171  0.51495198  0.06751286    -0.13400
C4333       C  0.94700474  0.51573101  0.02769766     0.05100
C4334       C  0.94186524  0.50015397  0.00710078    -0.09400
C4335       C  0.93842710  0.48283318  0.02662881     0.06000
C4336       C  0.93823250  0.48273925  0.06665325    -0.13700
Br4337     Br  0.92458691  0.52820617  0.12239902    -0.05800
Br4338     Br  0.96049956  0.46924859  0.21494177    -0.00200
Br4339     Br  0.95396783  0.53767753  0.00126819     0.00300
Br4340     Br  0.93178241  0.46047288  0.09350636    -0.04100
Br4341     Br  0.92439448  0.52762917  0.21691725     0.00400
Br4342     Br  0.96155028  0.47246225  0.12153013    -0.03400
Br4343     Br  0.95533957  0.53548151  0.09533932    -0.04300
Br4344     Br  0.93445801  0.45894006  0.99945503    -0.00300
C4345       C  0.93966705  0.33011892  0.46787956     0.01100
C4346       C  0.94168132  0.33432221  0.42914524     0.03900
C4347       C  0.94161541  0.35416339  0.41615124    -0.12100
C4348       C  0.93939294  0.36983004  0.44163835     0.23200
C4349       C  0.93699080  0.36561352  0.47990323    -0.12700
C4350       C  0.93706897  0.34585754  0.49295891     0.04600
C4351       C  0.93956304  0.39081300  0.42845595     0.27100
C4352       C  0.94960594  0.40184236  0.43016376    -0.13400
C4353       C  0.94975820  0.42178628  0.41813922     0.05100
C4354       C  0.93984821  0.43084498  0.40437304    -0.09400
C4355       C  0.92968548  0.42001644  0.40418837     0.06000
C4356       C  0.92957849  0.39999953  0.41594350    -0.13700
Br4357     Br  0.93363993  0.38709987  0.51441530    -0.05800
Br4358     Br  0.94489091  0.31314624  0.39395714    -0.00200
Br4359     Br  0.96344932  0.43698359  0.42247114     0.00300
Br4360     Br  0.91578053  0.38497104  0.41484115    -0.04100
Br4361     Br  0.93299925  0.34036022  0.54498674     0.00400
Br4362     Br  0.94472652  0.36006393  0.36356822    -0.03400
Br4363     Br  0.96312052  0.38958873  0.44948106    -0.04300
Br4364     Br  0.91595644  0.43226004  0.38663342    -0.00300
C4365       C  0.90462168  0.51289296  0.40974236     0.01100
C4366       C  0.90086805  0.49948698  0.43809159     0.03900
C4367       C  0.88945029  0.49904000  0.44885843    -0.12100
C4368       C  0.88166515  0.51195750  0.43160026     0.23200
C4369       C  0.88537057  0.52563108  0.40403051    -0.12700
C4370       C  0.89679333  0.52619338  0.39322579     0.04600
C4371       C  0.86957765  0.51140180  0.44267355     0.27100
C4372       C  0.86210251  0.49850662  0.42381543    -0.13400
C4373       C  0.85058458  0.49851354  0.43316294     0.05100
C4374       C  0.84642055  0.51186148  0.46077839    -0.09400
C4375       C  0.85391406  0.52481790  0.47955032     0.06000
C4376       C  0.86547791  0.52433635  0.47094928    -0.13700
Br4377     Br  0.87470279  0.54388323  0.38177379    -0.05800
Br4378     Br  0.91143370  0.48283946  0.46504369    -0.00200
Br4379     Br  0.84045041  0.48109363  0.40613958     0.00300
Br4380     Br  0.87575406  0.54158750  0.49749743    -0.04100
Br4381     Br  0.90158661  0.54521587  0.35559857     0.00400
Br4382     Br  0.88446369  0.48129837  0.48850023    -0.03400
Br4383     Br  0.86763233  0.48141401  0.38400513    -0.04300
Br4384     Br  0.84839372  0.54314766  0.51741311    -0.00300
C4385       C  0.52536937  0.25077177  0.93395578     0.01100
C4386       C  0.51638473  0.23809005  0.94431247     0.03900
C4387       C  0.50574515  0.24008195  0.92672405    -0.12100
C4388       C  0.50408502  0.25428695  0.89778084     0.23200
C4389       C  0.51296116  0.26703102  0.88765487    -0.12700
C4390       C  0.52349582  0.26544295  0.90572387     0.04600
C4391       C  0.49289996  0.25670539  0.87899170     0.27100
C4392       C  0.49062175  0.24766040  0.84361757    -0.13400
C4393       C  0.48033453  0.25135870  0.82467958     0.05100
C4394       C  0.47229269  0.26424917  0.84089912    -0.09400
C4395       C  0.47468100  0.27335456  0.87627016     0.06000
C4396       C  0.48487390  0.26950184  0.89518414    -0.13700
Br4397     Br  0.51063693  0.28660482  0.84826001    -0.05800
Br4398     Br  0.51855007  0.21813253  0.98298459    -0.00200
Br4399     Br  0.47752065  0.23970590  0.77560788     0.00300
Br4400     Br  0.48795791  0.28196491  0.94347883    -0.04100
Br4401     Br  0.53548081  0.28270709  0.88911763     0.00400
Br4402     Br  0.49335673  0.22348223  0.94224668    -0.03400
Br4403     Br  0.50173270  0.23046559  0.82103147    -0.04300
Br4404     Br  0.46396739  0.29088187  0.90016244    -0.00300
C4405       C  0.47467221  0.26520498  0.34127933     0.01100
C4406       C  0.47728703  0.27413521  0.37675770     0.03900
C4407       C  0.48805942  0.27203394  0.39275230    -0.12100
C4408       C  0.49624076  0.26041595  0.37445522     0.23200
C4409       C  0.49367442  0.25119057  0.33953151    -0.12700
C4410       C  0.48294520  0.25364320  0.32286873     0.04600
C4411       C  0.50744314  0.25760201  0.39264744     0.27100
C4412       C  0.51651800  0.26990608  0.38255116    -0.13400
C4413       C  0.52717782  0.26693979  0.39906125     0.05100
C4414       C  0.52870547  0.25233948  0.42772004    -0.09400
C4415       C  0.51943502  0.24057258  0.43877571     0.06000
C4416       C  0.50890377  0.24302616  0.42096032    -0.13700
Br4417     Br  0.50490487  0.23503854  0.31489050    -0.05800
Br4418     Br  0.46601338  0.28811406  0.40583316    -0.00200
Br4419     Br  0.53975506  0.28185596  0.37923130     0.00300
Br4420     Br  0.49634587  0.22653590  0.43543563    -0.04100
Br4421     Br  0.47972278  0.24159478  0.27444681     0.00400
Br4422     Br  0.49167879  0.28494086  0.44025592    -0.03400
Br4423     Br  0.51423488  0.29105595  0.34629268    -0.04300
Br4424     Br  0.52095347  0.22151619  0.47921718    -0.00300
C4425       C  0.56046599  0.25872428  0.64598655     0.01100
C4426       C  0.56660481  0.24308134  0.66310047     0.03900
C4427       C  0.56668150  0.24094281  0.70288416    -0.12100
C4428       C  0.56095442  0.25474189  0.72587869     0.23200
C4429       C  0.55494065  0.27047047  0.70901351    -0.12700
C4430       C  0.55458495  0.27234664  0.66919578     0.04600
C4431       C  0.56101943  0.25243408  0.76782468     0.27100
C4432       C  0.55284943  0.24047038  0.78544203    -0.13400
C4433       C  0.55266492  0.23857767  0.82519050     0.05100
C4434       C  0.56085542  0.24831537  0.84761393    -0.09400
C4435       C  0.56914679  0.26006356  0.82983595     0.06000
C4436       C  0.56916114  0.26224316  0.79003422    -0.13700
Br4437     Br  0.54720653  0.28943477  0.74078346    -0.05800
Br4438     Br  0.57560239  0.22530133  0.63259458    -0.00200
Br4439     Br  0.54070327  0.22348425  0.84858778     0.00300
Br4440     Br  0.58032165  0.27863946  0.76566537    -0.04100
Br4441     Br  0.54565780  0.29318515  0.64659048     0.00400
Br4442     Br  0.57468452  0.21916366  0.72623875    -0.03400
Br4443     Br  0.54184527  0.22677208  0.75482217    -0.04300
Br4444     Br  0.58080699  0.27239687  0.85969191    -0.00300
C4445       C  0.56222334  0.26015933  0.14555343     0.01100
C4446       C  0.55607819  0.27345330  0.16860019     0.03900
C4447       C  0.55680135  0.27215882  0.20843186    -0.12100
C4448       C  0.56334256  0.25713426  0.22545384     0.23200
C4449       C  0.56911065  0.24333782  0.20254460    -0.12700
C4450       C  0.56885072  0.24519099  0.16274228     0.04600
C4451       C  0.56368393  0.25514607  0.26744834     0.27100
C4452       C  0.57251485  0.26364064  0.28864956    -0.13400
C4453       C  0.57284781  0.26138558  0.32848613     0.05100
C4454       C  0.56440862  0.25036749  0.34719363    -0.09400
C4455       C  0.55559488  0.24176893  0.32557230     0.06000
C4456       C  0.55520556  0.24435851  0.28601109    -0.13700
Br4457     Br  0.57707313  0.22152286  0.22592818    -0.05800
Br4458     Br  0.54617732  0.29278348  0.14570867    -0.00200
Br4459     Br  0.58512913  0.27262338  0.35703097     0.00300
Br4460     Br  0.54293753  0.23330262  0.25687443    -0.04100
Br4461     Br  0.57817283  0.22792466  0.13223428     0.00400
Br4462     Br  0.54863072  0.29065715  0.23992092    -0.03400
Br4463     Br  0.58412225  0.27836058  0.26281197    -0.04300
Br4464     Br  0.54361376  0.22696005  0.34951366    -0.00300
C4465       C  0.72294351  0.24679672  0.70665283     0.01100
C4466       C  0.72482102  0.26056125  0.73637489     0.03900
C4467       C  0.73561495  0.26276730  0.75185939    -0.12100
C4468       C  0.74454024  0.25108393  0.73823438     0.23200
C4469       C  0.74273135  0.23734514  0.70873289    -0.12700
C4470       C  0.73196667  0.23536390  0.69263053     0.04600
C4471       C  0.75594902  0.25403646  0.75381914     0.27100
C4472       C  0.76315483  0.26783519  0.73647225    -0.13400
C4473       C  0.77380442  0.27152033  0.75201494     0.05100
C4474       C  0.77736887  0.26121717  0.78497217    -0.09400
C4475       C  0.77029874  0.24666994  0.80126589     0.06000
C4476       C  0.75950389  0.24339400  0.78608869    -0.13700
Br4477     Br  0.75506465  0.22128997  0.69066550    -0.05800
Br4478     Br  0.71261953  0.27587779  0.75773482    -0.00200
Br4479     Br  0.78372714  0.28961851  0.72572235     0.00300
Br4480     Br  0.74949772  0.22435966  0.80920805    -0.04100
Br4481     Br  0.72974865  0.21781844  0.65013891     0.00400
Br4482     Br  0.73823450  0.28169746  0.79213450    -0.03400
Br4483     Br  0.75843349  0.28139718  0.69077059    -0.04300
Br4484     Br  0.77529310  0.23117896  0.84417510    -0.00300
C4485       C  0.65419683  0.26039111  0.59767880     0.01100
C4486       C  0.64745081  0.24811433  0.62083490     0.03900
C4487       C  0.63577758  0.24712975  0.61448221    -0.12100
C4488       C  0.63088039  0.25851988  0.58527836     0.23200
C4489       C  0.63757142  0.27104464  0.56272389    -0.12700
C4490       C  0.64921669  0.27166448  0.56831428     0.04600
C4491       C  0.61867118  0.25769543  0.57791718     0.27100
C4492       C  0.61454020  0.24609457  0.54771555    -0.13400
C4493       C  0.60317688  0.24752928  0.53697162     0.05100
C4494       C  0.59599844  0.26095161  0.55595515    -0.09400
C4495       C  0.60011535  0.27198800  0.58725350     0.06000
C4496       C  0.61140582  0.27022335  0.59830030    -0.13700
Br4497     Br  0.63068297  0.28774899  0.52458751    -0.05800
Br4498     Br  0.65399141  0.23336332  0.66218559    -0.00200
Br4499     Br  0.59773971  0.23196308  0.49488702     0.00300
Br4500     Br  0.61708188  0.28539222  0.64074902    -0.04100
Br4501     Br  0.65833571  0.28734042  0.53415493     0.00400
Br4502     Br  0.62639303  0.23066717  0.64619180    -0.03400
Br4503     Br  0.62466703  0.22892985  0.52013693    -0.04300
Br4504     Br  0.59035344  0.28935567  0.61600204    -0.00300
C4505       C  0.77713469  0.25995251  0.28998209     0.01100
C4506       C  0.77002036  0.24561333  0.30684703     0.03900
C4507       C  0.75921825  0.24214960  0.29174323    -0.12100
C4508       C  0.75585103  0.25176804  0.25811799     0.23200
C4509       C  0.76304640  0.26547038  0.24042645    -0.12700
C4510       C  0.77355260  0.26982762  0.25652830     0.04600
C4511       C  0.74444238  0.24875739  0.24240374     0.27100
C4512       C  0.74236283  0.23364322  0.21563022    -0.13400
C4513       C  0.73174579  0.23221129  0.19819668     0.05100
C4514       C  0.72319298  0.24587738  0.20762855    -0.09400
C4515       C  0.72535396  0.26106146  0.23446063     0.06000
C4516       C  0.73589376  0.26223643  0.25216726    -0.13700
Br4517     Br  0.75835696  0.27842400  0.19399554    -0.05800
Br4518     Br  0.77495547  0.23065966  0.35048888    -0.00200
Br4519     Br  0.72906668  0.21210437  0.16016541     0.00300
Br4520     Br  0.73863164  0.28198676  0.29089835    -0.04100
Br4521     Br  0.78315806  0.28853285  0.23055622     0.00400
Br4522     Br  0.74877053  0.22494562  0.31768909    -0.03400
Br4523     Br  0.75402598  0.21479802  0.20338490    -0.04300
Br4524     Br  0.71388298  0.27996541  0.24881176    -0.00300
C4525       C  0.68718320  0.24561913  0.79122223     0.01100
C4526       C  0.67989715  0.25906850  0.80978258     0.03900
C4527       C  0.67981914  0.26015677  0.84977717    -0.12100
C4528       C  0.68702631  0.24790907  0.87129833     0.23200
C4529       C  0.69405396  0.23414031  0.85301287    -0.12700
C4530       C  0.69432672  0.23321247  0.81320756     0.04600
C4531       C  0.68759785  0.24980652  0.91319827     0.27100
C4532       C  0.69613713  0.26140057  0.92987786    -0.13400
C4533       C  0.69708570  0.26245262  0.96964222     0.05100
C4534       C  0.68940468  0.25213597  0.99285375    -0.09400
C4535       C  0.68090687  0.24042313  0.97610859     0.06000
C4536       C  0.68009594  0.23908832  0.93633875    -0.13700
Br4537     Br  0.70328163  0.21641139  0.88299790    -0.05800
Br4538     Br  0.66974955  0.27556366  0.78083134    -0.00200
Br4539     Br  0.70909721  0.27756178  0.99240866     0.00300
Br4540     Br  0.66876828  0.22250686  0.91331582    -0.04100
Br4541     Br  0.70521534  0.21575065  0.78962944     0.00400
Br4542     Br  0.66971036  0.27811974  0.87539286    -0.03400
Br4543     Br  0.70654586  0.27575978  0.89802271    -0.04300
Br4544     Br  0.66998252  0.22701152  0.00748152    -0.00300
C4545       C  0.68777944  0.24859358  0.29196011     0.01100
C4546       C  0.69512361  0.23731416  0.31529111     0.03900
C4547       C  0.69477032  0.23937305  0.35497878    -0.12100
C4548       C  0.68713599  0.25266841  0.37181247     0.23200
C4549       C  0.67990398  0.26411397  0.34882630    -0.12700
C4550       C  0.68035386  0.26236291  0.30893687     0.04600
C4551       C  0.68702208  0.25478078  0.41376671     0.27100
C4552       C  0.68090140  0.24124963  0.43625505    -0.13400
C4553       C  0.68132672  0.24255800  0.47612504     0.05100
C4554       C  0.68830775  0.25680997  0.49360611    -0.09400
C4555       C  0.69475954  0.26981265  0.47105171     0.06000
C4556       C  0.69383353  0.26923758  0.43126251    -0.13700
Br4557     Br  0.66923243  0.28185251  0.37228046    -0.05800
Br4558     Br  0.70630612  0.21986311  0.29342969    -0.00200
Br4559     Br  0.67202736  0.22530901  0.50663195     0.00300
Br4560     Br  0.70193299  0.28817451  0.40057428    -0.04100
Br4561     Br  0.67063003  0.27859500  0.27789212     0.00400
Br4562     Br  0.70479463  0.22399162  0.38674162    -0.03400
Br4563     Br  0.67208170  0.22076160  0.41223889    -0.04300
Br4564     Br  0.70548749  0.28740436  0.49464773    -0.00300
C4565       C  0.59620669  0.25833017  0.04661823     0.01100
C4566       C  0.60301338  0.24610119  0.02354078     0.03900
C4567       C  0.61443161  0.24310546  0.03287962    -0.12100
C4568       C  0.61919504  0.25303484  0.06424977     0.23200
C4569       C  0.61237815  0.26501524  0.08754735    -0.12700
C4570       C  0.60088549  0.26722306  0.07939673     0.04600
C4571       C  0.63153532  0.25275050  0.07075401     0.27100
C4572       C  0.63623306  0.24138834  0.10044110    -0.13400
C4573       C  0.64767030  0.24361756  0.11005211     0.05100
C4574       C  0.65457106  0.25656886  0.08880111    -0.09400
C4575       C  0.64991806  0.26718941  0.05782427     0.06000
C4576       C  0.63842574  0.26551096  0.04932718    -0.13700
Br4577     Br  0.61893097  0.27914707  0.12987811    -0.05800
Br4578     Br  0.59697233  0.23465510  0.97775165    -0.00200
Br4579     Br  0.65354935  0.23015210  0.15414332     0.00300
Br4580     Br  0.63200489  0.28113571  0.00867559    -0.04100
Br4581     Br  0.59155239  0.28197193  0.11434879     0.00400
Br4582     Br  0.62369776  0.22581411  0.00239719    -0.03400
Br4583     Br  0.62690224  0.22295444  0.12804923    -0.04300
Br4584     Br  0.65923063  0.28370593  0.02568440    -0.00300
C4585       C  0.52303987  0.00872215  0.70308859     0.01100
C4586       C  0.52114209  0.99340344  0.72999035     0.03900
C4587       C  0.51062841  0.99163445  0.74787261    -0.12100
C4588       C  0.50193953  0.00504398  0.73918212     0.23200
C4589       C  0.50357070  0.01972080  0.71124032    -0.12700
C4590       C  0.51410841  0.02165721  0.69335239     0.04600
C4591       C  0.49096133  0.00319479  0.75875315     0.27100
C4592       C  0.48249649  0.99146294  0.74246475    -0.13400
C4593       C  0.47212603  0.98924701  0.76100612     0.05100
C4594       C  0.47027136  0.99827748  0.79697643    -0.09400
C4595       C  0.47882625  0.01009441  0.81318692     0.06000
C4596       C  0.48910769  0.01266138  0.79389446    -0.13700
Br4597     Br  0.49130217  0.03717537  0.69787638    -0.05800
Br4598     Br  0.53306171  0.97567065  0.74558230    -0.00200
Br4599     Br  0.46034493  0.97500423  0.73465566     0.00300
Br4600     Br  0.50071893  0.02920348  0.81533191    -0.04100
Br4601     Br  0.51620705  0.04195462  0.65529104     0.00400
Br4602     Br  0.50810339  0.97104903  0.78517744    -0.03400
Br4603     Br  0.48518830  0.97855531  0.69425065    -0.04300
Br4604     Br  0.47671191  0.02229147  0.86226109    -0.00300
C4605       C  0.55603772  0.08166899  0.60551866     0.01100
C4606       C  0.55709110  0.09736640  0.63199002     0.03900
C4607       C  0.55810576  0.11713131  0.61926545    -0.12100
C4608       C  0.55839852  0.12134490  0.58011096     0.23200
C4609       C  0.55757516  0.10570962  0.55364935    -0.12700
C4610       C  0.55616539  0.08598895  0.56625195     0.04600
C4611       C  0.55884135  0.14234630  0.56688872     0.27100
C4612       C  0.54875945  0.15266087  0.55983965    -0.13400
C4613       C  0.54901665  0.17264304  0.54809938     0.05100
C4614       C  0.55938581  0.18238707  0.54212555    -0.09400
C4615       C  0.56951355  0.17210648  0.54993261     0.06000
C4616       C  0.56921841  0.15215245  0.56233221    -0.13700
Br4617     Br  0.55835960  0.11142834  0.50004760    -0.05800
Br4618     Br  0.55768931  0.09193572  0.68582120    -0.00200
Br4619     Br  0.53505872  0.18690732  0.54256609     0.00300
Br4620     Br  0.58300308  0.13795923  0.57236751    -0.04100
Br4621     Br  0.55362352  0.06518670  0.52953717     0.00400
Br4622     Br  0.55904938  0.13862040  0.65541211    -0.03400
Br4623     Br  0.53454884  0.13920741  0.56608597    -0.04300
Br4624     Br  0.58384639  0.18486451  0.54207363    -0.00300
C4625       C  0.47624870  0.00124891  0.31730937     0.01100
C4626       C  0.48512647  0.98933196  0.33124547     0.03900
C4627       C  0.49594260  0.99072802  0.31494583    -0.12100
C4628       C  0.49798550  0.00436340  0.28533426     0.23200
C4629       C  0.48930321  0.01696013  0.27281786    -0.12700
C4630       C  0.47843649  0.01515714  0.28802998     0.04600
C4631       C  0.50916670  0.00557440  0.26654534     0.27100
C4632       C  0.51703430  0.01968832  0.27892947    -0.13400
C4633       C  0.52704277  0.02272493  0.25841228     0.05100
C4634       C  0.52920189  0.01189924  0.22448457    -0.09400
C4635       C  0.52145355  0.99707510  0.21315721     0.06000
C4636       C  0.51147295  0.99400777  0.23411436    -0.13700
Br4637     Br  0.49230391  0.03642032  0.23374656    -0.05800
Br4638     Br  0.48252470  0.97132545  0.37297269    -0.00200
Br4639     Br  0.53798477  0.04091667  0.27926499     0.00300
Br4640     Br  0.50071772  0.97422949  0.21821247    -0.04100
Br4641     Br  0.46645638  0.03050659  0.26529099     0.00400
Br4642     Br  0.50793986  0.97376205  0.33244464    -0.03400
Br4643     Br  0.51390986  0.03506017  0.32408055    -0.04300
Br4644     Br  0.52417677  0.98129724  0.16837641    -0.00300
C4645       C  0.55711398  0.01230058  0.79464456     0.01100
C4646       C  0.56574709  0.00201219  0.81383802     0.03900
C4647       C  0.56569451  0.00106321  0.85383064    -0.12100
C4648       C  0.55715386  0.01072894  0.87462946     0.23200
C4649       C  0.54854613  0.02096034  0.85546661    -0.12700
C4650       C  0.54837158  0.02138430  0.81564687     0.04600
C4651       C  0.55702952  0.00999692  0.91670880     0.27100
C4652       C  0.55009754  0.99618512  0.93544224    -0.13400
C4653       C  0.54960448  0.99591236  0.97530896     0.05100
C4654       C  0.55643265  0.00886724  0.99680537    -0.09400
C4655       C  0.56324486  0.02298999  0.97788895     0.06000
C4656       C  0.56339432  0.02369797  0.93791111    -0.13700
Br4657     Br  0.53706017  0.03469138  0.88405851    -0.05800
Br4658     Br  0.57790702  0.99008409  0.78560312    -0.00200
Br4659     Br  0.53930872  0.97805570  0.00043824     0.00300
Br4660     Br  0.57247134  0.04316846  0.91183670    -0.04100
Br4661     Br  0.53575582  0.03369278  0.79021659     0.00400
Br4662     Br  0.57734505  0.98672792  0.88033177    -0.03400
Br4663     Br  0.54147767  0.97730162  0.90625762    -0.04300
Br4664     Br  0.57304962  0.04046299  0.00607133    -0.00300
C4665       C  0.56206074  0.00391168  0.49668744     0.01100
C4666       C  0.57205569  0.99822665  0.47780539     0.03900
C4667       C  0.57267884  0.99901607  0.43805289    -0.12100
C4668       C  0.56367105  0.00685394  0.41698302     0.23200
C4669       C  0.55377842  0.01305477  0.43571299    -0.12700
C4670       C  0.55284887  0.01102871  0.47542868     0.04600
C4671       C  0.56446017  0.00756690  0.37496680     0.27100
C4672       C  0.57073029  0.02260238  0.35696746    -0.13400
C4673       C  0.57162542  0.02293673  0.31711282     0.05100
C4674       C  0.56573635  0.00884398  0.29488528    -0.09400
C4675       C  0.55943496  0.99382629  0.31322826     0.06000
C4676       C  0.55918667  0.99278116  0.35309890    -0.13700
Br4677     Br  0.54140811  0.02375057  0.40669672    -0.05800
Br4678     Br  0.58513926  0.98976814  0.50603755    -0.00200
Br4679     Br  0.58101959  0.04272415  0.29318759     0.00300
Br4680     Br  0.55151559  0.97115056  0.37812610    -0.04100
Br4681     Br  0.53867297  0.01626530  0.50010464     0.00400
Br4682     Br  0.58565446  0.98834196  0.41210765    -0.03400
Br4683     Br  0.57787842  0.04297457  0.38706759    -0.04300
Br4684     Br  0.54994445  0.97607100  0.28463642    -0.00300
C4685       C  0.55885145  0.18246382  0.04075921     0.01100
C4686       C  0.55040653  0.17493861  0.06471316     0.03900
C4687       C  0.55114071  0.15531071  0.07817087    -0.12100
C4688       C  0.56007900  0.14298874  0.06642107     0.23200
C4689       C  0.56844793  0.15048380  0.04203928    -0.12700
C4690       C  0.56797772  0.17037365  0.02998021     0.04600
C4691       C  0.56060038  0.12213925  0.07973250     0.27100
C4692       C  0.56656646  0.11739312  0.11307184    -0.13400
C4693       C  0.56651443  0.09779181  0.12689878     0.05100
C4694       C  0.56028733  0.08303081  0.10788795    -0.09400
C4695       C  0.55452187  0.08768395  0.07409670     0.06000
C4696       C  0.55477471  0.10719738  0.05982212    -0.13700
Br4697     Br  0.58034874  0.13332820  0.02443938    -0.05800
Br4698     Br  0.53795603  0.19163938  0.07936890    -0.00200
Br4699     Br  0.57524184  0.09096136  0.17122741     0.00300
Br4700     Br  0.54707401  0.11362104  0.01319788    -0.04100
Br4701     Br  0.57971455  0.18105277  0.99809362     0.00400
Br4702     Br  0.53995167  0.14521937  0.11278839    -0.03400
Br4703     Br  0.57464359  0.13787447  0.13995755    -0.04300
Br4704     Br  0.54589307  0.06753677  0.04830938    -0.00300
C4705       C  0.77384785  0.00584572  0.82281728     0.01100
C4706       C  0.76502132  0.99254424  0.81363367     0.03900
C4707       C  0.75445184  0.99426487  0.83148806    -0.12100
C4708       C  0.75244242  0.00969676  0.85757514     0.23200
C4709       C  0.76069865  0.02430475  0.86338670    -0.12700
C4710       C  0.77124164  0.02276398  0.84538010     0.04600
C4711       C  0.74132730  0.01149752  0.87669414     0.27100
C4712       C  0.73277152  0.02274754  0.85948511    -0.13400
C4713       C  0.72218921  0.02445693  0.87697802     0.05100
C4714       C  0.72007594  0.01505326  0.91236527    -0.09400
C4715       C  0.72875955  0.00405378  0.92989857     0.06000
C4716       C  0.73936258  0.00233085  0.91210712    -0.13700
Br4717     Br  0.75754228  0.04629600  0.89701095    -0.05800
Br4718     Br  0.76693164  0.97310956  0.77394865    -0.00200
Br4719     Br  0.71052604  0.03896707  0.85057115     0.00300
Br4720     Br  0.75132809  0.98771114  0.93632831    -0.04100
Br4721     Br  0.78162306  0.04452111  0.85171432     0.00400
Br4722     Br  0.74267503  0.97537823  0.82068671    -0.03400
Br4723     Br  0.73565065  0.03587637  0.81163260    -0.04300
Br4724     Br  0.72633981  0.99214860  0.97901796    -0.00300
C4725       C  0.68732351  0.07876893  0.02976348     0.01100
C4726       C  0.68231883  0.09527809  0.01172521     0.03900
C4727       C  0.68242653  0.11403535  0.02939357    -0.12100
C4728       C  0.68775180  0.11653720  0.06481701     0.23200
C4729       C  0.69260836  0.10000558  0.08319560    -0.12700
C4730       C  0.69230827  0.08112455  0.06588413     0.04600
C4731       C  0.68885363  0.13684578  0.08111728     0.27100
C4732       C  0.69862713  0.14806260  0.07378896    -0.13400
C4733       C  0.69925178  0.16806707  0.08537544     0.05100
C4734       C  0.69023740  0.17677416  0.10531175    -0.09400
C4735       C  0.68062422  0.16537417  0.11376727     0.06000
C4736       C  0.67987988  0.14551124  0.10139608    -0.13700
Br4737     Br  0.70000027  0.10343776  0.13150079    -0.05800
Br4738     Br  0.67516404  0.09218831  0.96288982    -0.00200
Br4739     Br  0.71219722  0.18385084  0.07225750     0.00300
Br4740     Br  0.66653223  0.13020506  0.11175221    -0.04100
Br4741     Br  0.69936393  0.05882499  0.09075263     0.00400
Br4742     Br  0.67545394  0.13652860  0.00477766    -0.03400
Br4743     Br  0.71109539  0.13598635  0.04735753    -0.04300
Br4744     Br  0.66857149  0.17696119  0.14301681    -0.00300
C4745       C  0.65261747  0.99939369  0.03227844     0.01100
C4746       C  0.64646102  0.01521189  0.01570220     0.03900
C4747       C  0.63510791  0.01832022  0.02558171    -0.12100
C4748       C  0.62972168  0.00529277  0.05096878     0.23200
C4749       C  0.63576283  0.98947799  0.06732101    -0.12700
C4750       C  0.64719300  0.98670263  0.05861061     0.04600
C4751       C  0.61747614  0.00700324  0.05843990     0.27100
C4752       C  0.61343290  0.01861570  0.08878502    -0.13400
C4753       C  0.60197467  0.01779473  0.09907497     0.05100
C4754       C  0.59452713  0.00519114  0.07900308    -0.09400
C4755       C  0.59853254  0.99475781  0.04672004     0.06000
C4756       C  0.60997282  0.99547144  0.03693394    -0.13700
Br4757     Br  0.62821916  0.97146871  0.10162188    -0.05800
Br4758     Br  0.65319182  0.03205777  0.97772332    -0.00200
Br4759     Br  0.59682109  0.03322881  0.14184837     0.00300
Br4760     Br  0.61557320  0.97994039  0.99481481    -0.04100
Br4761     Br  0.65540641  0.96608649  0.08494281     0.00400
Br4762     Br  0.62681535  0.04030936  0.00422212    -0.03400
Br4763     Br  0.62378023  0.03492978  0.11715544    -0.04300
Br4764     Br  0.58839718  0.98001387  0.01429766    -0.00300
C4765       C  0.71992329  0.01131098  0.41408999     0.01100
C4766       C  0.72191068  0.99463075  0.39044320     0.03900
C4767       C  0.73247859  0.99186821  0.37334784    -0.12100
C4768       C  0.74098099  0.00613220  0.37811613     0.23200
C4769       C  0.73898692  0.02306763  0.40057390    -0.12700
C4770       C  0.72855804  0.02555705  0.41896301     0.04600
C4771       C  0.75233379  0.00238200  0.36224137     0.27100
C4772       C  0.76016151  0.99171079  0.38409858    -0.13400
C4773       C  0.77098975  0.98806796  0.36984908     0.05100
C4774       C  0.77404391  0.99491352  0.33320008    -0.09400
C4775       C  0.76602614  0.00491483  0.31073913     0.06000
C4776       C  0.75522343  0.00887394  0.32544033    -0.13700
Br4777     Br  0.75067323  0.04272998  0.40615793    -0.05800
Br4778     Br  0.71002543  0.97625327  0.37803009    -0.00200
Br4779     Br  0.78157500  0.97413003  0.40179236     0.00300
Br4780     Br  0.74435102  0.02316697  0.29540444    -0.04100
Br4781     Br  0.72636111  0.04823623  0.45173040     0.00400
Br4782     Br  0.73542768  0.96841756  0.34330963    -0.03400
Br4783     Br  0.75593617  0.98207559  0.43384498    -0.04300
Br4784     Br  0.76961304  0.01193421  0.25906611    -0.00300
C4785       C  0.68319569  0.00800652  0.83413824     0.01100
C4786       C  0.69044210  0.99459369  0.81517511     0.03900
C4787       C  0.69036688  0.99347125  0.77527235    -0.12100
C4788       C  0.68340646  0.00624036  0.75393484     0.23200
C4789       C  0.67617063  0.01960707  0.77270875    -0.12700
C4790       C  0.67590377  0.02023030  0.81266083     0.04600
C4791       C  0.68362191  0.00537941  0.71174766     0.27100
C4792       C  0.69267588  0.01371665  0.69138803    -0.13400
C4793       C  0.69330957  0.01151446  0.65165420     0.05100
C4794       C  0.68450709  0.00209734  0.63172780    -0.09400
C4795       C  0.67516670  0.99454175  0.65220446     0.06000
C4796       C  0.67489679  0.99573928  0.69206688    -0.13700
Br4797     Br  0.66681084  0.03740953  0.74348709    -0.05800
Br4798     Br  0.70122451  0.97882161  0.84316704    -0.00200
Br4799     Br  0.70668063  0.01997050  0.62520752     0.00300
Br4800     Br  0.66258165  0.98399687  0.71999086    -0.04100
Br4801     Br  0.66530186  0.03754792  0.83779167     0.00400
Br4802     Br  0.69994433  0.97456695  0.74960790    -0.03400
Br4803     Br  0.70417324  0.02830548  0.71811866    -0.04300
Br4804     Br  0.66237193  0.98318002  0.62622400    -0.00300
C4805       C  0.68690626  0.00462581  0.13165725     0.01100
C4806       C  0.69333414  0.99250708  0.15610432     0.03900
C4807       C  0.69257217  0.99497477  0.19572243    -0.12100
C4808       C  0.68532211  0.00946869  0.21109579     0.23200
C4809       C  0.67883717  0.02149726  0.18672151    -0.12700
C4810       C  0.67959345  0.01905151  0.14709733     0.04600
C4811       C  0.68457710  0.01207437  0.25293201     0.27100
C4812       C  0.67749769  0.99974919  0.27470591    -0.13400
C4813       C  0.67718649  0.00162771  0.31456392     0.05100
C4814       C  0.68406771  0.01574608  0.33293230    -0.09400
C4815       C  0.69088948  0.02859161  0.31071022     0.06000
C4816       C  0.69110885  0.02670650  0.27092714    -0.13700
Br4817     Br  0.66869453  0.04095088  0.20788333    -0.05800
Br4818     Br  0.70325693  0.97260176  0.13528213    -0.00200
Br4819     Br  0.66684588  0.98560573  0.34359826     0.00300
Br4820     Br  0.70055795  0.04392698  0.24075581    -0.04100
Br4821     Br  0.66997508  0.03449506  0.11421105     0.00400
Br4822     Br  0.70136135  0.97838081  0.22917982    -0.03400
Br4823     Br  0.66823791  0.98026694  0.24958659    -0.04300
Br4824     Br  0.70048006  0.04835523  0.33400384    -0.00300
C4825       C  0.69011073  0.08095563  0.52444437     0.01100
C4826       C  0.68956186  0.08508799  0.56383420     0.03900
C4827       C  0.68957549  0.10487937  0.57685708    -0.12100
C4828       C  0.68994424  0.12074242  0.55081133     0.23200
C4829       C  0.69034059  0.11679655  0.51160737    -0.12700
C4830       C  0.69062779  0.09703696  0.49839068     0.04600
C4831       C  0.69000547  0.14158642  0.56482003     0.27100
C4832       C  0.67994602  0.15054978  0.57731613    -0.13400
C4833       C  0.68013708  0.16980467  0.59293373     0.05100
C4834       C  0.69033642  0.18045231  0.59485296    -0.09400
C4835       C  0.70031733  0.17173429  0.58112282     0.06000
C4836       C  0.70018735  0.15224973  0.56668218    -0.13700
Br4837     Br  0.69010816  0.13866530  0.47604263    -0.05800
Br4838     Br  0.68933935  0.06390081  0.60072317    -0.00200
Br4839     Br  0.66656005  0.18098902  0.61408510     0.00300
Br4840     Br  0.71401466  0.13997965  0.55016290    -0.04100
Br4841     Br  0.69125016  0.09248437  0.44421947     0.00400
Br4842     Br  0.68910927  0.11041801  0.63066527    -0.03400
Br4843     Br  0.66593739  0.13625469  0.57338700    -0.04300
Br4844     Br  0.71412555  0.18671805  0.58089343    -0.00300
C4845       C  0.59467950  0.00974146  0.60242520     0.01100
C4846       C  0.59779585  0.02416020  0.57498137     0.03900
C4847       C  0.60905473  0.02553547  0.56307957    -0.12100
C4848       C  0.61725727  0.01317974  0.57947981     0.23200
C4849       C  0.61442109  0.00068298  0.61006259    -0.12700
C4850       C  0.60313714  0.99886989  0.62140704     0.04600
C4851       C  0.62867472  0.01218296  0.56288210     0.27100
C4852       C  0.63083698  0.99889741  0.53287024    -0.13400
C4853       C  0.64185860  0.99641957  0.51919523     0.05100
C4854       C  0.65078573  0.00732945  0.53548435    -0.09400
C4855       C  0.64844185  0.02140889  0.56444150     0.06000
C4856       C  0.63740632  0.02376451  0.57799092    -0.13700
Br4857     Br  0.62600379  0.98554394  0.63536130    -0.05800
Br4858     Br  0.58677148  0.04132308  0.55138028    -0.00200
Br4859     Br  0.64458492  0.97818157  0.47789596     0.00300
Br4860     Br  0.63422757  0.04226697  0.61849291    -0.04100
Br4861     Br  0.59932332  0.98182099  0.66350891     0.00400
Br4862     Br  0.61324075  0.04348620  0.52271218    -0.03400
Br4863     Br  0.61864279  0.98371558  0.51126617    -0.04300
Br4864     Br  0.66029870  0.03643860  0.58864190    -0.00300
C4865       C  0.52755836  0.75155006  0.66847943     0.01100
C4866       C  0.51764292  0.74688140  0.68848118     0.03900
C4867       C  0.50705575  0.75044655  0.67156061    -0.12100
C4868       C  0.50643866  0.75703310  0.63351656     0.23200
C4869       C  0.51636013  0.76136086  0.61352122    -0.12700
C4870       C  0.52678369  0.75988636  0.63176750     0.04600
C4871       C  0.49548166  0.75932921  0.61376834     0.27100
C4872       C  0.49000427  0.74254828  0.59907867    -0.13400
C4873       C  0.47994568  0.74464894  0.57828310     0.05100
C4874       C  0.47532208  0.76391188  0.57119409    -0.09400
C4875       C  0.48169462  0.78079495  0.58280108     0.06000
C4876       C  0.49133816  0.77841000  0.60554065    -0.13700
Br4877     Br  0.51571167  0.76866175  0.56041860    -0.05800
Br4878     Br  0.51861256  0.73622467  0.73914081    -0.00200
Br4879     Br  0.47310947  0.72045397  0.55995216     0.00300
Br4880     Br  0.49893997  0.80139337  0.62616095    -0.04100
Br4881     Br  0.53983905  0.77014186  0.60622310     0.00400
Br4882     Br  0.49342177  0.74656090  0.70022686    -0.03400
Br4883     Br  0.49649400  0.71651858  0.60752130    -0.04300
Br4884     Br  0.47791301  0.80754274  0.56686027    -0.00300
C4885       C  0.56105749  0.82715184  0.70105600     0.01100
C4886       C  0.56224860  0.83608658  0.66504161     0.03900
C4887       C  0.56143714  0.85695724  0.66129985    -0.12100
C4888       C  0.55923916  0.86894275  0.69336987     0.23200
C4889       C  0.55747291  0.85992093  0.72891693    -0.12700
C4890       C  0.55834961  0.83915087  0.73276408     0.04600
C4891       C  0.55936685  0.89106443  0.69027201     0.27100
C4892       C  0.56941079  0.90154130  0.69714354    -0.13400
C4893       C  0.56970041  0.92239244  0.69354630     0.05100
C4894       C  0.55996864  0.93299470  0.68248643    -0.09400
C4895       C  0.54979972  0.92252030  0.67689756     0.06000
C4896       C  0.54950401  0.90164326  0.68101894    -0.13700
Br4897     Br  0.55415976  0.87622368  0.77260534    -0.05800
Br4898     Br  0.56556611  0.81990998  0.62126978    -0.00200
Br4899     Br  0.58344403  0.93643908  0.70470517     0.00300
Br4900     Br  0.53566266  0.88732650  0.67316471    -0.04100
Br4901     Br  0.55551917  0.82715078  0.78166456     0.00400
Br4902     Br  0.56379982  0.86933678  0.61258745    -0.03400
Br4903     Br  0.58285326  0.88713438  0.71086652    -0.04300
Br4904     Br  0.53643053  0.93644303  0.66082442    -0.00300
C4905       C  0.47475774  0.76161033  0.07417989     0.01100
C4906       C  0.48190834  0.77846607  0.07394730     0.03900
C4907       C  0.49235640  0.77791874  0.09272861    -0.12100
C4908       C  0.49589272  0.76041844  0.11099386     0.23200
C4909       C  0.48938418  0.74302172  0.10783622    -0.12700
C4910       C  0.47905290  0.74336406  0.08836839     0.04600
C4911       C  0.50721481  0.75915755  0.12850998     0.27100
C4912       C  0.51587272  0.74997967  0.10782795    -0.13400
C4913       C  0.52603968  0.74517574  0.12569322     0.05100
C4914       C  0.52808479  0.75132926  0.16355040    -0.09400
C4915       C  0.51961655  0.76155388  0.18370234     0.06000
C4916       C  0.50908674  0.76507517  0.16643525    -0.13700
Br4917     Br  0.49482638  0.71849694  0.12995294    -0.05800
Br4918     Br  0.47806856  0.80166049  0.04425373    -0.00200
Br4919     Br  0.53689085  0.72965686  0.09754980     0.00300
Br4920     Br  0.49713243  0.77745663  0.19483111    -0.04100
Br4921     Br  0.47152142  0.71831790  0.07978713     0.00400
Br4922     Br  0.50202618  0.80093010  0.09261657    -0.03400
Br4923     Br  0.51363640  0.74369624  0.05475232    -0.04300
Br4924     Br  0.52211240  0.76919345  0.23581214    -0.00300
C4925       C  0.56065154  0.82858651  0.19541733     0.01100
C4926       C  0.55010618  0.83817414  0.19628198     0.03900
C4927       C  0.54936773  0.85866913  0.18858039    -0.12100
C4928       C  0.55913209  0.86945203  0.17924001     0.23200
C4929       C  0.56952129  0.85955691  0.17581947    -0.12700
C4930       C  0.57033234  0.83926004  0.18474802     0.04600
C4931       C  0.55877473  0.89141708  0.17617523     0.27100
C4932       C  0.55652528  0.90056199  0.14109244    -0.13400
C4933       C  0.55700817  0.92138401  0.13788070     0.05100
C4934       C  0.56018046  0.93312608  0.16948968    -0.09400
C4935       C  0.56247275  0.92387407  0.20452961     0.06000
C4936       C  0.56156940  0.90310490  0.20801214    -0.13700
Br4937     Br  0.58270107  0.87409548  0.16011819    -0.05800
Br4938     Br  0.53685636  0.82361254  0.21129038    -0.00200
Br4939     Br  0.55333575  0.93369489  0.08985032     0.00300
Br4940     Br  0.56481999  0.89040343  0.25592350    -0.04100
Br4941     Br  0.58478735  0.82622171  0.18378653     0.00400
Br4942     Br  0.53513838  0.87225057  0.19272852    -0.03400
Br4943     Br  0.55345445  0.88438054  0.09705510    -0.04300
Br4944     Br  0.56813900  0.93920123  0.24651444    -0.00300
C4945       C  0.56481819  0.75129274  0.08630481     0.01100
C4946       C  0.55769894  0.76522013  0.06795165     0.03900
C4947       C  0.55741686  0.76629662  0.02803885    -0.12100
C4948       C  0.56422619  0.75361442  0.00606431     0.23200
C4949       C  0.57137987  0.73985750  0.02412826    -0.12700
C4950       C  0.57174052  0.73876149  0.06408069     0.04600
C4951       C  0.56390145  0.75496754  0.96390824     0.27100
C4952       C  0.55517536  0.74575803  0.94335100    -0.13400
C4953       C  0.55431574  0.74851452  0.90377940     0.05100
C4954       C  0.56266905  0.75923059  0.88408624    -0.09400
C4955       C  0.57161933  0.76797945  0.90474986     0.06000
C4956       C  0.57206504  0.76620350  0.94455028    -0.13700
Br4957     Br  0.58039790  0.72206369  0.99380644    -0.05800
Br4958     Br  0.54755999  0.78194167  0.09672039    -0.00200
Br4959     Br  0.54107328  0.73949035  0.87741431     0.00300
Br4960     Br  0.58385631  0.77923187  0.97285463    -0.04100
Br4961     Br  0.58195822  0.72033852  0.08813700     0.00400
Br4962     Br  0.54736183  0.78471251  0.00311690    -0.03400
Br4963     Br  0.54443700  0.72929216  0.96964730    -0.04300
Br4964     Br  0.58358578  0.78197738  0.87896499    -0.00300
C4965       C  0.56218791  0.75358188  0.38386440     0.01100
C4966       C  0.56984542  0.73973781  0.39928777     0.03900
C4967       C  0.57051753  0.73713372  0.43888858    -0.12100
C4968       C  0.56390893  0.74899375  0.46317166     0.23200
C4969       C  0.55636233  0.76299094  0.44773653    -0.12700
C4970       C  0.55543968  0.76516192  0.40815212     0.04600
C4971       C  0.56442345  0.74623546  0.50493899     0.27100
C4972       C  0.55653896  0.73380055  0.52269036    -0.13400
C4973       C  0.55612782  0.73258615  0.56249141     0.05100
C4974       C  0.56383109  0.74361115  0.58501975    -0.09400
C4975       C  0.57210837  0.75529052  0.56693454     0.06000
C4976       C  0.57228512  0.75681856  0.52699142    -0.13700
Br4977     Br  0.54724312  0.77908586  0.48106278    -0.05800
Br4978     Br  0.57991119  0.72525365  0.36638051    -0.00200
Br4979     Br  0.54432430  0.71675279  0.58524202     0.00300
Br4980     Br  0.58311778  0.77372827  0.50223619    -0.04100
Br4981     Br  0.54483078  0.78384197  0.38704408     0.00400
Br4982     Br  0.58035522  0.71719335  0.45999809    -0.03400
Br4983     Br  0.54604491  0.71886642  0.49200640    -0.04300
Br4984     Br  0.58357158  0.76835292  0.59652574    -0.00300
C4985       C  0.72494230  0.74870495  0.94995199     0.01100
C4986       C  0.72680316  0.76431306  0.97622536     0.03900
C4987       C  0.73771428  0.76852472  0.98918868    -0.12100
C4988       C  0.74678524  0.75637834  0.97837563     0.23200
C4989       C  0.74502294  0.74072638  0.95241421    -0.12700
C4990       C  0.73416071  0.73705917  0.93778363     0.04600
C4991       C  0.75799754  0.75949158  0.99622198     0.27100
C4992       C  0.76632009  0.77055295  0.97731664    -0.13400
C4993       C  0.77676389  0.77409096  0.99494509     0.05100
C4994       C  0.77909660  0.76606628  0.03139949    -0.09400
C4995       C  0.77069873  0.75502026  0.05025344     0.06000
C4996       C  0.76013856  0.75203104  0.03296068    -0.13700
Br4997     Br  0.75751916  0.72416188  0.93756764    -0.05800
Br4998     Br  0.71438061  0.77880487  0.99831732    -0.00200
Br4999     Br  0.78794737  0.78928669  0.96771616     0.00300
Br5000     Br  0.74846277  0.73784538  0.05967579    -0.04100
Br5001     Br  0.73202759  0.71630405  0.90077839     0.00400
Br5002     Br  0.74027175  0.79082698  0.02260044    -0.03400
Br5003     Br  0.76336842  0.78072870  0.92699033    -0.04300
Br5004     Br  0.77346078  0.74453299  0.10035229    -0.00300
C5005       C  0.69256837  0.82591235  0.92431118     0.01100
C5006       C  0.69771522  0.83763514  0.89601768     0.03900
C5007       C  0.69872879  0.85829911  0.90098166    -0.12100
C5008       C  0.69448427  0.86734283  0.93405749     0.23200
C5009       C  0.69003187  0.85544462  0.96343884    -0.12700
C5010       C  0.68913503  0.83471697  0.95862636     0.04600
C5011       C  0.69378641  0.88937386  0.93645295     0.27100
C5012       C  0.70223880  0.90036429  0.95495542    -0.13400
C5013       C  0.70110088  0.92110294  0.95901913     0.05100
C5014       C  0.69153159  0.93091769  0.94456058    -0.09400
C5015       C  0.68338169  0.92006529  0.92436868     0.06000
C5016       C  0.68445074  0.89931474  0.92058004    -0.13700
Br5017     Br  0.68468617  0.86770702  0.00948790    -0.05800
Br5018     Br  0.70325960  0.82532981  0.85017352    -0.00200
Br5019     Br  0.71234707  0.93605296  0.98617828     0.00300
Br5020     Br  0.67280630  0.88426092  0.89556436    -0.04100
Br5021     Br  0.68260830  0.81852327  0.99794782     0.00400
Br5022     Br  0.70556806  0.87441772  0.86203149    -0.03400
Br5023     Br  0.71505200  0.88680715  0.97632017    -0.04300
Br5024     Br  0.67062201  0.93368420  0.90284755    -0.00300
C5025       C  0.65481122  0.75542458  0.83898061     0.01100
C5026       C  0.65154796  0.74286501  0.80865922     0.03900
C5027       C  0.64022987  0.74219167  0.79707880    -0.12100
C5028       C  0.63204924  0.75318915  0.81686597     0.23200
C5029       C  0.63516406  0.76468865  0.84857282    -0.12700
C5030       C  0.64653420  0.76605852  0.85928306     0.04600
C5031       C  0.62019451  0.75326970  0.80377098     0.27100
C5032       C  0.61662808  0.76751936  0.77709704    -0.13400
C5033       C  0.60519482  0.76895135  0.76724521     0.05100
C5034       C  0.59723480  0.75602827  0.78401260    -0.09400
C5035       C  0.60093640  0.74122507  0.80975518     0.06000
C5036       C  0.61239205  0.73991244  0.81955028    -0.13700
Br5037     Br  0.62379384  0.77891725  0.87670731    -0.05800
Br5038     Br  0.66253168  0.72724127  0.78131380    -0.00200
Br5039     Br  0.60056090  0.78870804  0.73057928     0.00300
Br5040     Br  0.61742082  0.72046950  0.85612643    -0.04100
Br5041     Br  0.65070852  0.78220536  0.90230828     0.00400
Br5042     Br  0.63594071  0.72700649  0.75291524    -0.03400
Br5043     Br  0.62745055  0.78551776  0.75505869    -0.04300
Br5044     Br  0.59033819  0.72375496  0.83455278    -0.00300
C5045       C  0.72202194  0.74639255  0.45483643     0.01100
C5046       C  0.73016329  0.75779489  0.43555389     0.03900
C5047       C  0.74079154  0.76106881  0.45232198    -0.12100
C5048       C  0.74328556  0.75286309  0.48827986     0.23200
C5049       C  0.73531628  0.74087537  0.50674618    -0.12700
C5050       C  0.72472967  0.73771237  0.49032914     0.04600
C5051       C  0.75443467  0.75576371  0.50648525     0.27100
C5052       C  0.76333716  0.74290322  0.49729639    -0.13400
C5053       C  0.77368611  0.74441523  0.51642611     0.05100
C5054       C  0.77513505  0.75854499  0.54600392    -0.09400
C5055       C  0.76595337  0.77078324  0.55629251     0.06000
C5056       C  0.75574642  0.76971416  0.53599061    -0.13700
Br5057     Br  0.73904336  0.72847179  0.55466417    -0.05800
Br5058     Br  0.72697867  0.76783793  0.38539384    -0.00200
Br5059     Br  0.78597566  0.72804825  0.49879327     0.00300
Br5060     Br  0.74350879  0.78745711  0.54815525    -0.04100
Br5061     Br  0.71390623  0.72193852  0.51802234     0.00400
Br5062     Br  0.75201406  0.77643933  0.42596906    -0.03400
Br5063     Br  0.76128124  0.72320683  0.45796921    -0.04300
Br5064     Br  0.76714018  0.78839887  0.59931908    -0.00300
C5065       C  0.68872237  0.82745141  0.42141314     0.01100
C5066       C  0.69136579  0.84034113  0.39100913     0.03900
C5067       C  0.69086590  0.86108824  0.39576903    -0.12100
C5068       C  0.68841032  0.86929045  0.43159110     0.23200
C5069       C  0.68647102  0.85646273  0.46272853    -0.12700
C5070       C  0.68642702  0.83559621  0.45754050     0.04600
C5071       C  0.68749837  0.89136082  0.43590224     0.27100
C5072       C  0.69722319  0.90316131  0.43998707    -0.13400
C5073       C  0.69628749  0.92392404  0.44522978     0.05100
C5074       C  0.68563267  0.93327771  0.44388181    -0.09400
C5075       C  0.67597266  0.92148977  0.43743250     0.06000
C5076       C  0.67688136  0.90064897  0.43441743    -0.13700
Br5077     Br  0.68355057  0.86760164  0.51219331    -0.05800
Br5078     Br  0.69601325  0.82953150  0.34266562    -0.00200
Br5079     Br  0.70954268  0.93902492  0.45792757     0.00300
Br5080     Br  0.66353301  0.88470136  0.42818671    -0.04100
Br5081     Br  0.68248446  0.81836697  0.49919033     0.00400
Br5082     Br  0.69302909  0.87835790  0.35263485    -0.03400
Br5083     Br  0.71184532  0.89075353  0.43846029    -0.04300
Br5084     Br  0.66142348  0.93387150  0.43146341    -0.00300
C5085       C  0.68619819  0.74998755  0.53897475     0.01100
C5086       C  0.67923954  0.73759523  0.56120762     0.03900
C5087       C  0.67976242  0.73853002  0.60104681    -0.12100
C5088       C  0.68714858  0.75196736  0.61876209     0.23200
C5089       C  0.69390878  0.76465848  0.59674503    -0.12700
C5090       C  0.69358899  0.76347387  0.55693028     0.04600
C5091       C  0.68761124  0.75317577  0.66064858     0.27100
C5092       C  0.67979668  0.76511315  0.67995114    -0.13400
C5093       C  0.68009929  0.76632718  0.71968125     0.05100
C5094       C  0.68876915  0.75666014  0.74028134    -0.09400
C5095       C  0.69663631  0.74467703  0.72071993     0.06000
C5096       C  0.69591445  0.74269961  0.68099282    -0.13700
Br5097     Br  0.70366262  0.78357424  0.62147530    -0.05800
Br5098     Br  0.66886874  0.71947087  0.53720576    -0.00200
Br5099     Br  0.66800068  0.78013990  0.74529897     0.00300
Br5100     Br  0.70635847  0.72586062  0.65405843    -0.04100
Br5101     Br  0.70405265  0.77912427  0.52755699     0.00400
Br5102     Br  0.67042785  0.72137003  0.63160895    -0.03400
Br5103     Br  0.66878629  0.78014011  0.65156381    -0.04300
Br5104     Br  0.70871535  0.73161438  0.74757761    -0.00300
C5105       C  0.69029079  0.75393182  0.24072918     0.01100
C5106       C  0.69778358  0.76497495  0.21805001     0.03900
C5107       C  0.69704628  0.76403247  0.17820432    -0.12100
C5108       C  0.68898811  0.75167601  0.16079829     0.23200
C5109       C  0.68162123  0.74034124  0.18341096    -0.12700
C5110       C  0.68228460  0.74137964  0.22327020     0.04600
C5111       C  0.68882731  0.74951571  0.11878919     0.27100
C5112       C  0.68098269  0.76004399  0.09649026    -0.13400
C5113       C  0.68089586  0.75770925  0.05665203     0.05100
C5114       C  0.68896229  0.74539946  0.03881499    -0.09400
C5115       C  0.69686463  0.73498989  0.06147149     0.06000
C5116       C  0.69665531  0.73682858  0.10121691    -0.13700
Br5117     Br  0.67048416  0.72364018  0.15958550    -0.05800
Br5118     Br  0.70943011  0.78061571  0.24166871    -0.00200
Br5119     Br  0.66928725  0.77041362  0.02707443     0.00300
Br5120     Br  0.70724110  0.72210002  0.13195316    -0.04100
Br5121     Br  0.67186694  0.72609529  0.25360135     0.00400
Br5122     Br  0.70696364  0.77988442  0.14723286    -0.03400
Br5123     Br  0.67048667  0.77784543  0.12077560    -0.04300
Br5124     Br  0.70854292  0.71895048  0.03859542    -0.00300
C5125       C  0.65411572  0.75610495  0.32936582     0.01100
C5126       C  0.64675563  0.74491432  0.35242859     0.03900
C5127       C  0.63537269  0.74291227  0.34208551    -0.12100
C5128       C  0.63130706  0.75213721  0.30885539     0.23200
C5129       C  0.63869704  0.76277623  0.28525447    -0.12700
C5130       C  0.65008027  0.76460353  0.29519357     0.04600
C5131       C  0.61906003  0.75295233  0.30127374     0.27100
C5132       C  0.61402296  0.74035194  0.27421939    -0.13400
C5133       C  0.60245368  0.74221451  0.26599239     0.05100
C5134       C  0.59593049  0.75672638  0.28492627    -0.09400
C5135       C  0.60098859  0.76871405  0.31312674     0.06000
C5136       C  0.61253057  0.76714120  0.32055267    -0.13700
Br5137     Br  0.63303975  0.77575676  0.24018698    -0.05800
Br5138     Br  0.65195564  0.73351541  0.39953045    -0.00200
Br5139     Br  0.59575965  0.72532984  0.22803375     0.00300
Br5140     Br  0.61954026  0.78493394  0.35654532    -0.04100
Br5141     Br  0.66009804  0.77850070  0.26105500     0.00400
Br5142     Br  0.62512386  0.72846162  0.37436628    -0.03400
Br5143     Br  0.62311178  0.72098964  0.24791023    -0.04300
Br5144     Br  0.59208683  0.78659839  0.34380313    -0.00300
C5145       C  0.47265135  0.49472590  0.03518327     0.01100
C5146       C  0.47488298  0.48676620  0.99860834     0.03900
C5147       C  0.48499970  0.49118758  0.97977586    -0.12100
C5148       C  0.49359273  0.50157197  0.99865170     0.23200
C5149       C  0.49170934  0.50855498  0.03596497    -0.12700
C5150       C  0.48114842  0.50568336  0.05370712     0.04600
C5151       C  0.50468099  0.50425487  0.97929158     0.27100
C5152       C  0.51198050  0.48790600  0.97504159    -0.13400
C5153       C  0.52207433  0.48977037  0.95427184     0.05100
C5154       C  0.52554394  0.50866530  0.94039868    -0.09400
C5155       C  0.51767479  0.52458481  0.94199156     0.06000
C5156       C  0.50735832  0.52234616  0.96140204    -0.13700
Br5157     Br  0.50365992  0.52183574  0.06276215    -0.05800
Br5158     Br  0.46425909  0.46965341  0.97316561    -0.00200
Br5159     Br  0.53040416  0.46573434  0.94360037     0.00300
Br5160     Br  0.49672216  0.54401930  0.96321410    -0.04100
Br5161     Br  0.47853978  0.51568348  0.10421410     0.00400
Br5162     Br  0.48700286  0.48358616  0.92723131    -0.03400
Br5163     Br  0.50812640  0.46281657  0.99842707    -0.04300
Br5164     Br  0.52037825  0.54912815  0.91491187    -0.00300
C5165       C  0.56060820  0.43245921  0.92349801     0.01100
C5166       C  0.56590598  0.42293019  0.95420849     0.03900
C5167       C  0.56439407  0.40239468  0.95987177    -0.12100
C5168       C  0.55764843  0.39131159  0.93461650     0.23200
C5169       C  0.55196768  0.40101803  0.90482089    -0.12700
C5170       C  0.55348595  0.42156114  0.89918558     0.04600
C5171       C  0.55743864  0.36929820  0.93773154     0.27100
C5172       C  0.56643062  0.35816498  0.92259114    -0.13400
C5173       C  0.56746353  0.33783143  0.93116867     0.05100
C5174       C  0.55922540  0.32838666  0.95344300    -0.09400
C5175       C  0.54975938  0.33914198  0.96601525     0.06000
C5176       C  0.54890888  0.35963888  0.95845975    -0.13700
Br5177     Br  0.54244557  0.38599054  0.87109865    -0.05800
Br5178     Br  0.57556373  0.43793065  0.98747564    -0.00200
Br5179     Br  0.58032568  0.32304379  0.91349216     0.00300
Br5180     Br  0.53633748  0.37465173  0.97772991    -0.04100
Br5181     Br  0.54618772  0.43471681  0.85716901     0.00400
Br5182     Br  0.57183105  0.38921073  0.00156679    -0.03400
Br5183     Br  0.57745617  0.37101653  0.89080803    -0.04300
Br5184     Br  0.53839608  0.32601469  0.99602665    -0.00300
C5185       C  0.55873605  0.57914334  0.84043474     0.01100
C5186       C  0.54888494  0.58725785  0.82434857     0.03900
C5187       C  0.54894677  0.60677941  0.80993514    -0.12100
C5188       C  0.55877760  0.61836663  0.81227144     0.23200
C5189       C  0.56873661  0.61001287  0.82689158    -0.12700
C5190       C  0.56876322  0.59036120  0.84052704     0.04600
C5191       C  0.55865371  0.63940857  0.79965922     0.27100
C5192       C  0.56074618  0.64418616  0.76141359    -0.13400
C5193       C  0.56063202  0.66417105  0.74955073     0.05100
C5194       C  0.55883339  0.67954584  0.77625397    -0.09400
C5195       C  0.55696716  0.67467412  0.81467176     0.06000
C5196       C  0.55660230  0.65465401  0.82615558    -0.13700
Br5197     Br  0.58233227  0.62562476  0.82816212    -0.05800
Br5198     Br  0.53547670  0.57131131  0.82025083    -0.00200
Br5199     Br  0.56331503  0.67037392  0.69679907     0.00300
Br5200     Br  0.55300583  0.64797647  0.87804991    -0.04100
Br5201     Br  0.58251337  0.57908940  0.86029053     0.00400
Br5202     Br  0.53565842  0.61766717  0.78635738    -0.03400
Br5203     Br  0.56379569  0.62320000  0.72550263    -0.04300
Br5204     Br  0.55454534  0.69527593  0.85154657    -0.00300
C5205       C  0.46989409  0.49614494  0.53351051     0.01100
C5206       C  0.47265242  0.48843444  0.49728463     0.03900
C5207       C  0.48319094  0.49245981  0.48110162    -0.12100
C5208       C  0.49109784  0.50389191  0.50110076     0.23200
C5209       C  0.48848949  0.51128724  0.53748424    -0.12700
C5210       C  0.47786408  0.50755505  0.55358369     0.04600
C5211       C  0.50238342  0.50712556  0.48449682     0.27100
C5212       C  0.51103606  0.49356912  0.49257610    -0.13400
C5213       C  0.52178966  0.49637369  0.47705566     0.05100
C5214       C  0.52387148  0.51240021  0.45185201    -0.09400
C5215       C  0.51505720  0.52582254  0.44335239     0.06000
C5216       C  0.50436887  0.52325075  0.45993364    -0.13700
Br5217     Br  0.49954529  0.52644335  0.56512348    -0.05800
Br5218     Br  0.46189758  0.47316063  0.46832304    -0.00200
Br5219     Br  0.53374767  0.47908030  0.49392929     0.00300
Br5220     Br  0.49236538  0.54176050  0.44932582    -0.04100
Br5221     Br  0.47439726  0.51748845  0.60360374     0.00400
Br5222     Br  0.48684409  0.48251820  0.43113868    -0.03400
Br5223     Br  0.50807703  0.47116369  0.52546174    -0.04300
Br5224     Br  0.51743559  0.54751361  0.40848519    -0.00300
C5225       C  0.56133517  0.33008927  0.45332559     0.01100
C5226       C  0.57073707  0.34245129  0.44695563     0.03900
C5227       C  0.56920731  0.36276768  0.43895179    -0.12100
C5228       C  0.55828617  0.37076364  0.43641823     0.23200
C5229       C  0.54888398  0.35823087  0.44033339    -0.12700
C5230       C  0.55038898  0.33799320  0.44932056     0.04600
C5231       C  0.55683839  0.39241851  0.42983581     0.27100
C5232       C  0.55647981  0.40564451  0.46087508    -0.13400
C5233       C  0.55699638  0.42632555  0.45472411     0.05100
C5234       C  0.55717581  0.43385975  0.41731573    -0.09400
C5235       C  0.55664288  0.42052143  0.38628466     0.06000
C5236       C  0.55689152  0.39990462  0.39256926    -0.13700
Br5237     Br  0.53396453  0.36897171  0.43407004    -0.05800
Br5238     Br  0.58573175  0.33152716  0.44837319    -0.00200
Br5239     Br  0.55869849  0.44395167  0.49754349     0.00300
Br5240     Br  0.55804267  0.38183067  0.35019059    -0.04100
Br5241     Br  0.53741081  0.32158812  0.45924508     0.00400
Br5242     Br  0.58206200  0.37990376  0.43198574    -0.03400
Br5243     Br  0.55585829  0.39527046  0.51188381    -0.04300
Br5244     Br  0.55537980  0.43030086  0.33482749    -0.00300
C5245       C  0.56040565  0.51080517  0.53835491     0.01100
C5246       C  0.56963292  0.50008419  0.55303417     0.03900
C5247       C  0.57101798  0.49815925  0.59259390    -0.12100
C5248       C  0.56326749  0.50711305  0.61756518     0.23200
C5249       C  0.55409092  0.51790666  0.60297672    -0.12700
C5250       C  0.55256527  0.51954435  0.56352405     0.04600
C5251       C  0.56442889  0.50461850  0.65924148     0.27100
C5252       C  0.55970014  0.48786891  0.67703624    -0.13400
C5253       C  0.55973108  0.48632868  0.71684460     0.05100
C5254       C  0.56477829  0.50134155  0.73910503    -0.09400
C5255       C  0.57011272  0.51755880  0.72104633     0.06000
C5256       C  0.56972739  0.51937487  0.68122444    -0.13700
Br5257     Br  0.54361658  0.53048583  0.63733752    -0.05800
Br5258     Br  0.58069895  0.48889694  0.51913994    -0.00200
Br5259     Br  0.55237948  0.46395020  0.74059189     0.00300
Br5260     Br  0.57638427  0.54209657  0.65653485    -0.04100
Br5261     Br  0.53937510  0.53300362  0.54428934     0.00400
Br5262     Br  0.58358401  0.48345753  0.61284267    -0.03400
Br5263     Br  0.55306386  0.46710842  0.64660474    -0.04300
Br5264     Br  0.57863578  0.53656526  0.75036072    -0.00300
C5265       C  0.56064200  0.51287719  0.03721238     0.01100
C5266       C  0.55336272  0.49976089  0.05677502     0.03900
C5267       C  0.55287484  0.50002395  0.09672408    -0.12100
C5268       C  0.55952836  0.51348940  0.11740105     0.23200
C5269       C  0.56669994  0.52668722  0.09816141    -0.12700
C5270       C  0.56741236  0.52617696  0.05829034     0.04600
C5271       C  0.55977569  0.51239320  0.15945086     0.27100
C5272       C  0.55225885  0.52368067  0.18162790    -0.13400
C5273       C  0.55200805  0.52122022  0.22138104     0.05100
C5274       C  0.55962567  0.50805856  0.23914956    -0.09400
C5275       C  0.56769491  0.49788436  0.21685882     0.06000
C5276       C  0.56753484  0.49962522  0.17713525    -0.13700
Br5277     Br  0.57552557  0.54549007  0.12678554    -0.05800
Br5278     Br  0.54358505  0.48199377  0.02952265    -0.00200
Br5279     Br  0.54084105  0.53510436  0.25092710     0.00300
Br5280     Br  0.57792251  0.48439918  0.14654520    -0.04100
Br5281     Br  0.57816345  0.54308054  0.03292132     0.00400
Br5282     Br  0.54303510  0.48201938  0.12355769    -0.03400
Br5283     Br  0.54236639  0.54250048  0.15733582    -0.04300
Br5284     Br  0.57952981  0.48248971  0.24040071    -0.00300
C5285       C  0.55725512  0.58226181  0.34923246     0.01100
C5286       C  0.54744343  0.59003577  0.33230395     0.03900
C5287       C  0.54746375  0.60941078  0.31741096    -0.12100
C5288       C  0.55723902  0.62111679  0.31979660     0.23200
C5289       C  0.56702488  0.61343038  0.33687163    -0.12700
C5290       C  0.56703234  0.59402263  0.35163758     0.04600
C5291       C  0.55717360  0.64161073  0.30462753     0.27100
C5292       C  0.55905507  0.64489348  0.26571115    -0.13400
C5293       C  0.55869380  0.66428851  0.25101446     0.05100
C5294       C  0.55708113  0.68062266  0.27567082    -0.09400
C5295       C  0.55511658  0.67724719  0.31472979     0.06000
C5296       C  0.55501168  0.65772911  0.32901255    -0.13700
Br5297     Br  0.58036293  0.62963686  0.34018515    -0.05800
Br5298     Br  0.53402457  0.57408599  0.32874246    -0.00200
Br5299     Br  0.56065898  0.66822111  0.19704727     0.00300
Br5300     Br  0.55176888  0.65287051  0.38193491    -0.04100
Br5301     Br  0.58022952  0.58398742  0.37717527     0.00400
Br5302     Br  0.53411610  0.62005879  0.29372318    -0.03400
Br5303     Br  0.56238830  0.62272662  0.23278478    -0.04300
Br5304     Br  0.55183773  0.69904062  0.34853039    -0.00300
C5305       C  0.77830278  0.49287367  0.58150232     0.01100
C5306       C  0.77080480  0.50767864  0.56820301     0.03900
C5307       C  0.76017853  0.51018362  0.58544462    -0.12100
C5308       C  0.75692853  0.49805812  0.61615425     0.23200
C5309       C  0.76420632  0.48299574  0.62893739    -0.12700
C5310       C  0.77490433  0.48059939  0.61231602     0.04600
C5311       C  0.74575168  0.50095728  0.63457601     0.27100
C5312       C  0.74442844  0.51473269  0.66445356    -0.13400
C5313       C  0.73371724  0.51808039  0.68057455     0.05100
C5314       C  0.72427709  0.50747327  0.66721919    -0.09400
C5315       C  0.72569660  0.49345509  0.63759631     0.06000
C5316       C  0.73637929  0.49023037  0.62147523    -0.13700
Br5317     Br  0.75941747  0.46561653  0.66948763    -0.05800
Br5318     Br  0.77486744  0.52445867  0.52594701    -0.00200
Br5319     Br  0.73200729  0.53701782  0.72126591     0.00300
Br5320     Br  0.73820719  0.47147343  0.58044804    -0.04100
Br5321     Br  0.78511917  0.46161418  0.63502247     0.00400
Br5322     Br  0.74987023  0.53007987  0.56677719    -0.03400
Br5323     Br  0.75733261  0.52914630  0.68284153    -0.04300
Br5324     Br  0.71293210  0.47961582  0.61653212    -0.00300
C5325       C  0.69154688  0.43178505  0.70395456     0.01100
C5326       C  0.69124134  0.42263811  0.66792288     0.03900
C5327       C  0.69232553  0.40180859  0.66499819    -0.12100
C5328       C  0.69407851  0.39020768  0.69787287     0.23200
C5329       C  0.69521280  0.39949072  0.73338465    -0.12700
C5330       C  0.69394416  0.42018583  0.73648140     0.04600
C5331       C  0.69345295  0.36820598  0.69589329     0.27100
C5332       C  0.68293390  0.35886639  0.69999430    -0.13400
C5333       C  0.68205066  0.33816101  0.69614499     0.05100
C5334       C  0.69163973  0.32671408  0.68751710    -0.09400
C5335       C  0.70230522  0.33584009  0.68637201     0.06000
C5336       C  0.70320810  0.35661771  0.69056055    -0.13700
Br5337     Br  0.69791843  0.38355805  0.77807729    -0.05800
Br5338     Br  0.68868991  0.43835504  0.62291833    -0.00200
Br5339     Br  0.66766259  0.32534152  0.70238160     0.00300
Br5340     Br  0.71768763  0.36935655  0.68763652    -0.04100
Br5341     Br  0.69570140  0.43258021  0.78558526     0.00400
Br5342     Br  0.69068681  0.38891090  0.61640976    -0.03400
Br5343     Br  0.66965996  0.37462605  0.70951502    -0.04300
Br5344     Br  0.71554884  0.32008396  0.67655926    -0.00300
C5345       C  0.69437870  0.57969242  0.77420957     0.01100
C5346       C  0.69679850  0.58409909  0.81250370     0.03900
C5347       C  0.69624310  0.60386053  0.82550160    -0.12100
C5348       C  0.69353376  0.61933279  0.80011764     0.23200
C5349       C  0.69127438  0.61501020  0.76177242    -0.12700
C5350       C  0.69164235  0.59524108  0.74883691     0.04600
C5351       C  0.69320226  0.64021008  0.81363767     0.27100
C5352       C  0.68305264  0.64845029  0.82694605    -0.13400
C5353       C  0.68279415  0.66812738  0.84044991     0.05100
C5354       C  0.69275395  0.67950824  0.84136288    -0.09400
C5355       C  0.70279148  0.67152612  0.82643229     0.06000
C5356       C  0.70303026  0.65186104  0.81285637    -0.13700
Br5357     Br  0.68758617  0.63629390  0.72716442    -0.05800
Br5358     Br  0.70156478  0.56329775  0.84664071    -0.00200
Br5359     Br  0.66882719  0.67921545  0.85871600     0.00300
Br5360     Br  0.71682694  0.64068429  0.79347030    -0.04100
Br5361     Br  0.68793031  0.58950967  0.69658423     0.00400
Br5362     Br  0.69915890  0.60986231  0.87813746    -0.03400
Br5363     Br  0.66958207  0.63250997  0.82746766    -0.04300
Br5364     Br  0.71602902  0.68789854  0.82239670    -0.00300
C5365       C  0.65580567  0.50704928  0.79477756     0.01100
C5366       C  0.65096128  0.49578772  0.82460185     0.03900
C5367       C  0.63977865  0.49920624  0.83579393    -0.12100
C5368       C  0.63347800  0.51453249  0.81882860     0.23200
C5369       C  0.63864294  0.52716676  0.79208568    -0.12700
C5370       C  0.64970241  0.52324459  0.77950289     0.04600
C5371       C  0.62106693  0.51477709  0.82439170     0.27100
C5372       C  0.61433842  0.50431159  0.79833461    -0.13400
C5373       C  0.60302056  0.50034577  0.80674738     0.05100
C5374       C  0.59819431  0.50724814  0.84097422    -0.09400
C5375       C  0.60471058  0.51895282  0.86587868     0.06000
C5376       C  0.61616122  0.52262653  0.85768133    -0.13700
Br5377     Br  0.63031528  0.54934271  0.77179895    -0.05800
Br5378     Br  0.65966056  0.47614799  0.85191191    -0.00200
Br5379     Br  0.59424001  0.48520604  0.77092547     0.00300
Br5380     Br  0.62527119  0.53779793  0.89237669    -0.04100
Br5381     Br  0.65606616  0.53929048  0.73952428     0.00400
Br5382     Br  0.63282381  0.48214456  0.87318868    -0.03400
Br5383     Br  0.62081610  0.49464902  0.75147313    -0.04300
Br5384     Br  0.59817099  0.52874624  0.91230910    -0.00300
C5385       C  0.72106795  0.51248833  0.16437407     0.01100
C5386       C  0.72320098  0.49716737  0.13771119     0.03900
C5387       C  0.73379927  0.49553846  0.12019976    -0.12100
C5388       C  0.74233754  0.50928617  0.12858360     0.23200
C5389       C  0.74021430  0.52487130  0.15430249    -0.12700
C5390       C  0.72961512  0.52652710  0.17206682     0.04600
C5391       C  0.75376178  0.50640748  0.11225936     0.27100
C5392       C  0.76147298  0.49412477  0.13137781    -0.13400
C5393       C  0.77213609  0.49044917  0.11568951     0.05100
C5394       C  0.77525768  0.49921384  0.08064232    -0.09400
C5395       C  0.76758422  0.51188030  0.06185903     0.06000
C5396       C  0.75679862  0.51522522  0.07740105    -0.13700
Br5397     Br  0.75192727  0.54386773  0.16507256    -0.05800
Br5398     Br  0.71145359  0.47913326  0.12227299    -0.00200
Br5399     Br  0.78258353  0.47419837  0.14407015     0.00300
Br5400     Br  0.74605684  0.53161242  0.05088965    -0.04100
Br5401     Br  0.72696342  0.54787488  0.20740035     0.00400
Br5402     Br  0.73669567  0.47449663  0.08419555    -0.03400
Br5403     Br  0.75735126  0.48237506  0.17948193    -0.04300
Br5404     Br  0.77168980  0.52422209  0.01443352    -0.00300
C5405       C  0.69211648  0.43105485  0.20233549     0.01100
C5406       C  0.68913740  0.42252896  0.16727919     0.03900
C5407       C  0.69006564  0.40183305  0.16199017    -0.12100
C5408       C  0.69386117  0.38958466  0.19192752     0.23200
C5409       C  0.69754608  0.39828428  0.22608561    -0.12700
C5410       C  0.69674693  0.41897914  0.23116598     0.04600
C5411       C  0.69317196  0.36757178  0.18851035     0.27100
C5412       C  0.68278803  0.35797542  0.19442084    -0.13400
C5413       C  0.68183109  0.33735050  0.18873797     0.05100
C5414       C  0.69134954  0.32602939  0.17844676    -0.09400
C5415       C  0.70188499  0.33547316  0.17466189     0.06000
C5416       C  0.70275244  0.35625013  0.17911726    -0.13700
Br5417     Br  0.70322648  0.38170466  0.26648315    -0.05800
Br5418     Br  0.68307760  0.43896402  0.12752919    -0.00200
Br5419     Br  0.66739401  0.32460981  0.19465138     0.00300
Br5420     Br  0.71692912  0.36942553  0.17074378    -0.04100
Br5421     Br  0.70195009  0.43087527  0.27785101     0.00400
Br5422     Br  0.68576821  0.39009924  0.11421070    -0.03400
Br5423     Br  0.66981773  0.37322825  0.20987381    -0.04300
Br5424     Br  0.71497615  0.32021634  0.16059424    -0.00300
C5425       C  0.69029727  0.50186504  0.88244186     0.01100
C5426       C  0.69646419  0.48848051  0.90510356     0.03900
C5427       C  0.69513426  0.48860859  0.94477259    -0.12100
C5428       C  0.68756320  0.50201677  0.96184005     0.23200
C5429       C  0.68139741  0.51540941  0.93919618    -0.12700
C5430       C  0.68281389  0.51546006  0.89957791     0.04600
C5431       C  0.68707716  0.50376410  0.00374855     0.27100
C5432       C  0.67933676  0.49261184  0.02527032    -0.13400
C5433       C  0.67875045  0.49514853  0.06500914     0.05100
C5434       C  0.68602050  0.50866174  0.08332678    -0.09400
C5435       C  0.69383259  0.51968284  0.06138761     0.06000
C5436       C  0.69427763  0.51730041  0.02183084    -0.13700
Br5437     Br  0.67100670  0.53368435  0.96274316    -0.05800
Br5438     Br  0.70698363  0.47038715  0.88167787    -0.00200
Br5439     Br  0.66745979  0.48123509  0.09380417     0.00300
Br5440     Br  0.70475780  0.53270662  0.99185895    -0.04100
Br5441     Br  0.67411106  0.53364512  0.86892864     0.00400
Br5442     Br  0.70376621  0.47062783  0.97591382    -0.03400
Br5443     Br  0.66945323  0.47418628  0.99998205    -0.04300
Br5444     Br  0.70437197  0.53770155  0.08486713    -0.00300
C5445       C  0.68785879  0.51224381  0.58485960     0.01100
C5446       C  0.67876463  0.50279278  0.56663059     0.03900
C5447       C  0.67847181  0.50171675  0.52663294    -0.12100
C5448       C  0.68751860  0.50920105  0.50503836     0.23200
C5449       C  0.69661862  0.51845926  0.52327106    -0.12700
C5450       C  0.69667395  0.52043130  0.56288862     0.04600
C5451       C  0.68760869  0.50740929  0.46306702     0.27100
C5452       C  0.69162812  0.48992251  0.44599166    -0.13400
C5453       C  0.69191720  0.48825070  0.40617811     0.05100
C5454       C  0.68853281  0.50445042  0.38295241    -0.09400
C5455       C  0.68533053  0.52259027  0.40053821     0.06000
C5456       C  0.68455723  0.52376216  0.44039616    -0.13700
Br5457     Br  0.70909198  0.52838618  0.49368756    -0.05800
Br5458     Br  0.66652412  0.49217666  0.59622284    -0.00200
Br5459     Br  0.69759094  0.46387612  0.38419575     0.00300
Br5460     Br  0.67925735  0.54780476  0.46447395    -0.04100
Br5461     Br  0.70910129  0.53415973  0.58654126     0.00400
Br5462     Br  0.66557306  0.49065715  0.50113581    -0.03400
Br5463     Br  0.69709085  0.46849235  0.47757374    -0.04300
Br5464     Br  0.68163388  0.54599232  0.37113421    -0.00300
C5465       C  0.68906836  0.57934721  0.27371191     0.01100
C5466       C  0.67908825  0.59065448  0.27405122     0.03900
C5467       C  0.67923142  0.61034966  0.28742487    -0.12100
C5468       C  0.68935100  0.61880281  0.30056912     0.23200
C5469       C  0.69928264  0.60735714  0.30094293    -0.12700
C5470       C  0.69913382  0.58765096  0.28760205     0.04600
C5471       C  0.68937465  0.63927042  0.31630925     0.27100
C5472       C  0.69325830  0.65540298  0.29435916    -0.13400
C5473       C  0.69336250  0.67471618  0.30983442     0.05100
C5474       C  0.68931316  0.67800593  0.34697770    -0.09400
C5475       C  0.68539251  0.66182506  0.36876839     0.06000
C5476       C  0.68554024  0.64250927  0.35361891    -0.13700
Br5477     Br  0.71299778  0.61853229  0.32089398    -0.05800
Br5478     Br  0.66525556  0.57931006  0.25536070    -0.00200
Br5479     Br  0.69975968  0.69634013  0.28109042     0.00300
Br5480     Br  0.68060044  0.62030407  0.38410382    -0.04100
Br5481     Br  0.71254262  0.57160447  0.29064238     0.00400
Br5482     Br  0.66553270  0.62573633  0.28829640    -0.03400
Br5483     Br  0.69850684  0.65094441  0.24322863    -0.04300
Br5484     Br  0.67949144  0.66611335  0.41918293    -0.00300
C5485       C  0.65223928  0.50061398  0.28530050     0.01100
C5486       C  0.64404311  0.49523120  0.25824043     0.03900
C5487       C  0.63253102  0.49513914  0.26818990    -0.12100
C5488       C  0.62912447  0.50118943  0.30482781     0.23200
C5489       C  0.63726970  0.50712823  0.33143494    -0.12700
C5490       C  0.64875140  0.50623727  0.32211706     0.04600
C5491       C  0.61702656  0.50141771  0.31581122     0.27100
C5492       C  0.61004403  0.51721499  0.30416114    -0.13400
C5493       C  0.59867878  0.51783493  0.31543611     0.05100
C5494       C  0.59424478  0.50268910  0.33892143    -0.09400
C5495       C  0.60143752  0.48746834  0.35224704     0.06000
C5496       C  0.61270075  0.48660087  0.34008413    -0.13700
Br5497     Br  0.63263701  0.51632638  0.38105939    -0.05800
Br5498     Br  0.64862432  0.48818433  0.20749406    -0.00200
Br5499     Br  0.58919761  0.53902965  0.29683795     0.00300
Br5500     Br  0.62218963  0.46488680  0.35623602    -0.04100
Br5501     Br  0.65958320  0.51090449  0.36142091     0.00400
Br5502     Br  0.62142526  0.48628499  0.23208608    -0.03400
Br5503     Br  0.61610201  0.53794903  0.27230660    -0.04300
Br5504     Br  0.59602029  0.46821773  0.38866621    -0.00300
loop_ 
_geom_bond_atom_site_label_1 
_geom_bond_atom_site_label_2 
_geom_bond_distance 
_geom_bond_site_symmetry_2 
_ccdc_geom_bond_type 
O1           Ni7   1.931       .  S
O1           C22   1.271       .  A
O2          Ni25   1.919       .  S
O2           C11   1.271       .  A
O3           Ni7   1.908       .  S
O3          Ni25   1.907       .  S
O3          Ni19   1.916       .  S
O3           H26   0.964       .  S
C4           O21   1.274       .  A
C4           O13   1.277       .  A
C4         C5454   1.493       .  S
O5          Ni24   1.923       .  S
O5           C11   1.271       .  A
O6          Ni24   1.907       .  S
O6            C8   1.267       .  A
Ni7          O10   1.918       .  S
Ni7          O12   1.913       .  S
C8           O18   1.277       .  A
C8         C5485   1.488       .  S
O9          Ni25   1.937       .  S
O9           C15   1.282       .  A
O10          C15   1.277       .  A
C11        C5405   1.478       .  S
O12          C14   1.269       .  A
O13         Ni24   1.933       .  S
C14          O20   1.274       .  A
C14        C5385   1.490       .  S
C15        C5434   1.485       .  S
H16          O17   0.967       .  S
O17         Ni25   1.919       .  S
O17         Ni19   1.900       .  S
O17         Ni24   1.907       .  S
O18         Ni19   1.953       .  S
Ni19         O23   1.906       .  S
Ni19         O21   1.916       .  S
O20         Ni25   1.934       .  S
C22          O23   1.267       .  A
C22        C5465   1.475       .  S
O27         Ni33   1.925       .  S
O27          C48   1.269       .  A
O28         Ni51   1.920       .  S
O28          C37   1.268       .  A
O29         Ni33   1.907       .  S
O29         Ni51   1.908       .  S
O29         Ni45   1.917       .  S
O29          H52   0.966       .  S
C30          O47   1.277       .  A
C30          O39   1.276       .  A
C30        C5425   1.470       .  S
O31         Ni50   1.918       .  S
O31          C37   1.268       .  A
O32         Ni50   1.908       .  S
O32          C34   1.269       .  A
Ni33         O36   1.913       .  S
Ni33         O38   1.919       .  S
C34          O44   1.271       .  A
C34        C5365   1.490       .  S
O35         Ni51   1.932       .  S
O35          C41   1.281       .  A
O36          C41   1.275       .  A
C37        C5325   1.482       .  S
O38          C40   1.270       .  A
O39         Ni50   1.921       .  S
C40          O46   1.271       .  A
C40        C5314   1.488       .  S
C41        C5445   1.477       .  S
H42          O43   0.966       .  S
O43         Ni51   1.921       .  S
O43         Ni45   1.903       .  S
O43         Ni50   1.906       .  S
O44         Ni45   1.933       .  S
Ni45         O49   1.910       .  S
Ni45         O47   1.914       .  S
O46         Ni51   1.926       .  S
C48          O49   1.267       .  A
C48        C5345   1.479       .  S
O53         Ni59   1.932       .  S
O53          C74   1.274       .  A
O54         Ni77   1.921       .  S
O54          C63   1.270       .  A
O55         Ni59   1.896       .  S
O55         Ni77   1.894       .  S
O55         Ni71   1.909       .  S
O55          H78   0.966       .  S
C56          O73   1.279       .  A
C56          O65   1.277       .  A
C56        C5274   1.482       .  S
O57         Ni76   1.916       .  S
O57          C63   1.267       .  A
O58         Ni76   1.900       .  S
O58          C60   1.267       .  A
Ni59         O62   1.919       .  S
Ni59         O64   1.911       .  S
C60          O70   1.273       .  A
C60        C5494   1.484       .  S
O61         Ni77   1.929       .  S
O61          C67   1.282       .  A
O62          C67   1.279       .  A
C63        C5234   1.481       .  S
O64          C66   1.269       .  A
O65         Ni76   1.917       .  S
C66          O72   1.272       .  A
C66        C5214   1.486       .  S
C67        C5245   1.479       .  S
H68          O69   0.966       .  S
O69         Ni77   1.921       .  S
O69         Ni71   1.897       .  S
O69         Ni76   1.898       .  S
O70         Ni71   1.934       .  S
Ni71         O75   1.902       .  S
Ni71         O73   1.927       .  S
O72         Ni77   1.926       .  S
C74          O75   1.269       .  A
C74        C5285   1.472       .  S
O79         Ni85   1.937       .  S
O79         C100   1.273       .  A
O80        Ni103   1.912       .  S
O80          C89   1.268       .  A
O81         Ni85   1.910       .  S
O81        Ni103   1.907       .  S
O81         Ni97   1.916       .  S
O81         H104   0.965       .  S
C82          O99   1.276       .  A
C82          O91   1.276       .  A
C82        C5254   1.480       .  S
O83        Ni102   1.927       .  S
O83          C89   1.271       .  A
O84        Ni102   1.912       .  S
O84          C86   1.270       .  A
Ni85         O88   1.917       .  S
Ni85         O90   1.911       .  S
C86          O96   1.272       .  A
C86        C5374   1.484       .  S
O87        Ni103   1.932       .  S
O87          C93   1.280       .  A
O88          C93   1.276       .  A
C89        C5165   1.474       .  S
O90          C92   1.269       .  A
O91        Ni102   1.926       .  S
C92          O98   1.273       .  A
C92        C5154   1.509       .  S
C93        C5265   1.486   1_556  S
H94          O95   0.966       .  S
O95        Ni103   1.917       .  S
O95         Ni97   1.901       .  S
O95        Ni102   1.912       .  S
O96         Ni97   1.935       .  S
Ni97        O101   1.900       .  S
Ni97         O99   1.914       .  S
O98        Ni103   1.937       .  S
C100        O101   1.265       .  A
C100       C5185   1.478       .  S
O105       Ni111   1.929       .  S
O105        C126   1.269       .  A
O106       Ni129   1.933       .  S
O106        C115   1.271       .  A
O107       Ni111   1.910       .  S
O107       Ni129   1.920       .  S
O107       Ni123   1.915       .  S
O107        H130   0.961       .  S
C108        O125   1.275       .  A
C108        O117   1.277       .  A
C108       C5105   1.478       .  S
O109       Ni128   1.921       .  S
O109        C115   1.267       .  A
O110       Ni128   1.901       .  S
O110        C112   1.266       .  A
Ni111       O114   1.920       .  S
Ni111       O116   1.899       .  S
C112        O122   1.270       .  A
C112       C5125   1.480       .  S
O113       Ni129   1.915       .  S
O113        C119   1.275       .  A
O114        C119   1.274       .  A
C115       C5065   1.489       .  S
O116        C118   1.267       .  A
O117       Ni128   1.925       .  S
C118        O124   1.276       .  A
C118       C5045   1.480       .  S
C119       C5085   1.476       .  S
H120        O121   0.965       .  S
O121       Ni129   1.917       .  S
O121       Ni123   1.908       .  S
O121       Ni128   1.912       .  S
O122       Ni123   1.927       .  S
Ni123       O127   1.908       .  S
Ni123       O125   1.914       .  S
O124       Ni129   1.938       .  S
C126        O127   1.266       .  A
C126       C5474   1.478       .  S
O131       Ni137   1.940       .  S
O131        C152   1.275       .  A
O132       Ni155   1.917       .  S
O132        C141   1.268       .  A
O133       Ni137   1.903       .  S
O133       Ni155   1.900       .  S
O133       Ni149   1.909       .  S
O133        H156   0.967       .  S
C134        O151   1.275       .  A
C134        O143   1.275       .  A
C134       C5094   1.480       .  S
O135       Ni154   1.918       .  S
O135        C141   1.268       .  A
O136       Ni154   1.911       .  S
O136        C138   1.270       .  A
Ni137       O140   1.924       .  S
Ni137       O142   1.922       .  S
C138        O148   1.270       .  A
C138       C5025   1.480       .  S
O139       Ni155   1.931       .  S
O139        C145   1.281       .  A
O140        C145   1.279       .  A
C141       C5005   1.475       .  S
O142        C144   1.271       .  A
O143       Ni154   1.917       .  S
C144        O150   1.270       .  A
C144       C4985   1.488       .  S
C145       C5114   1.487   1_556  S
H146        O147   0.966       .  S
O147       Ni155   1.920       .  S
O147       Ni149   1.902       .  S
O147       Ni154   1.906       .  S
O148       Ni149   1.922       .  S
Ni149       O153   1.900       .  S
Ni149       O151   1.913       .  S
O150       Ni155   1.918       .  S
C152        O153   1.266       .  A
C152       C5354   1.478       .  S
O157       Ni163   1.929       .  S
O157        C178   1.269       .  A
O158       Ni181   1.905       .  S
O158        C167   1.267       .  A
O159       Ni163   1.905       .  S
O159       Ni181   1.897       .  S
O159       Ni175   1.905       .  S
O159        H182   0.960       .  S
C160        O177   1.269       .  A
C160        O169   1.271       .  A
C160       C4965   1.473       .  S
O161       Ni180   1.924       .  S
O161        C167   1.270       .  A
O162       Ni180   1.904       .  S
O162        C164   1.269       .  A
Ni163       O166   1.925       .  S
Ni163       O168   1.897       .  S
C164        O174   1.275       .  A
C164       C5134   1.482       .  S
O165       Ni181   1.923       .  S
O165        C171   1.278       .  A
O166        C171   1.279       .  A
C167       C4925   1.472       .  S
O168        C170   1.265       .  A
O169       Ni180   1.930       .  S
C170        O176   1.273       .  A
C170       C4914   1.480       .  S
C171       C4945   1.487       .  S
H172        O173   0.969       .  S
O173       Ni181   1.923       .  S
O173       Ni175   1.916       .  S
O173       Ni180   1.916       .  S
O174       Ni175   1.945       .  S
Ni175       O179   1.905       .  S
Ni175       O177   1.906       .  S
O176       Ni181   1.931       .  S
C178        O179   1.266       .  A
C178       C5294   1.477       .  S
O183       Ni189   1.920       .  S
O183        C204   1.271       .  A
O184       Ni207   1.932       .  S
O184        C193   1.271       .  A
O185       Ni189   1.895       .  S
O185       Ni207   1.898       .  S
O185       Ni201   1.914       .  S
O185        H208   0.967       .  S
C186        O203   1.280       .  A
C186        O195   1.276       .  A
C186       C4954   1.486       .  S
O187       Ni206   1.914       .  S
O187        C193   1.266       .  A
O188       Ni206   1.904       .  S
O188        C190   1.268       .  A
Ni189       O192   1.912       .  S
Ni189       O194   1.920       .  S
C190        O200   1.272       .  A
C190       C5034   1.483       .  S
O191       Ni207   1.943       .  S
O191        C197   1.288       .  A
O192        C197   1.276       .  A
C193       C4885   1.487       .  S
O194        C196   1.271       .  A
O195       Ni206   1.918       .  S
C196        O202   1.269       .  A
C196       C4865   1.479       .  S
C197       C4974   1.487       .  S
H198        O199   0.967       .  S
O199       Ni207   1.934       .  S
O199       Ni201   1.907       .  S
O199       Ni206   1.905       .  S
O200       Ni201   1.929       .  S
Ni201       O205   1.919       .  S
Ni201       O203   1.931       .  S
O202       Ni207   1.922       .  S
C204        O205   1.272       .  A
C204       C5194   1.482       .  S
O209       Ni215   1.928       .  S
O209        C230   1.271       .  A
O210       Ni233   1.931       .  S
O210        C219   1.275       .  A
O211       Ni215   1.887       .  S
O211       Ni233   1.894   1_545  S
O211       Ni227   1.910       .  S
O211        H234   0.966       .  S
C212        O229   1.280       .  A
C212        O221   1.276   1_545  A
C212       C4794   1.486       .  S
O213       Ni232   1.921       .  S
O213        C219   1.270       .  A
O214       Ni232   1.909       .  S
O214        C216   1.270   1_565  A
Ni215       O218   1.913       .  S
Ni215       O220   1.911       .  S
C216        O226   1.269       .  A
C216       C4854   1.482       .  S
O217       Ni233   1.945   1_545  S
O217        C223   1.287       .  A
O218        C223   1.277       .  A
C219       C5074   1.493       .  S
O220        C222   1.269       .  A
O221       Ni232   1.922       .  S
C222        O228   1.275       .  A
C222       C4765   1.486       .  S
C223       C4814   1.487       .  S
H224        O225   0.966       .  S
O225       Ni233   1.924       .  S
O225       Ni227   1.903   1_565  S
O225       Ni232   1.904       .  S
O226       Ni227   1.919       .  S
Ni227       O231   1.918       .  S
Ni227       O229   1.925       .  S
O228       Ni233   1.931   1_545  S
C230        O231   1.271       .  A
C230       C4825   1.492       .  S
O235       Ni241   1.937       .  S
O235        C256   1.272   1_556  A
O236       Ni259   1.918       .  S
O236        C245   1.270       .  A
O237       Ni241   1.913       .  S
O237       Ni259   1.912   1_545  S
O237       Ni253   1.911   1_556  S
O237        H260   0.954       .  S
C238        O255   1.270       .  A
C238        O247   1.273   1_545  A
C238       C4805   1.478       .  S
O239       Ni258   1.926   1_556  S
O239        C245   1.269       .  A
O240       Ni258   1.912       .  S
O240        C242   1.269       .  A
Ni241       O244   1.923       .  S
Ni241       O246   1.903       .  S
C242        O252   1.271   1_565  A
C242       C4745   1.488       .  S
O243       Ni259   1.917       .  S
O243        C249   1.275   1_565  A
O244        C249   1.275       .  A
C245       C5014   1.476       .  S
O246        C248   1.269       .  A
O247       Ni258   1.933       .  S
C248        O254   1.277       .  A
C248       C4714   1.489       .  S
C249       C4785   1.483       .  S
H250        O251   0.969       .  S
O251       Ni259   1.919   1_554  S
O251       Ni253   1.914   1_565  S
O251       Ni258   1.925       .  S
O252       Ni253   1.937       .  S
Ni253       O257   1.904       .  S
Ni253       O255   1.907       .  S
O254       Ni259   1.941   1_545  S
C256        O257   1.264       .  A
C256       C4725   1.481       .  S
O261       Ni267   1.934       .  S
O261        C282   1.271       .  A
O262       Ni285   1.928       .  S
O262        C271   1.270       .  A
O263       Ni267   1.910       .  S
O263       Ni285   1.916   1_545  S
O263       Ni279   1.918       .  S
O263        H286   0.966       .  S
C264        O281   1.276       .  A
C264        O273   1.274   1_545  A
C264       C4654   1.481   1_554  S
O265       Ni284   1.907       .  S
O265        C271   1.262       .  A
O266       Ni284   1.899       .  S
O266        C268   1.265   1_565  A
Ni267       O270   1.918       .  S
Ni267       O272   1.911       .  S
C268        O278   1.270       .  A
C268       C4754   1.488       .  S
O269       Ni285   1.925       .  S
O269        C275   1.279   1_565  A
O270        C275   1.275       .  A
C271       C4934   1.480       .  S
O272        C274   1.271       .  A
O273       Ni284   1.915       .  S
C274        O280   1.275       .  A
C274       C4634   1.496       .  S
C275       C4674   1.483       .  S
H276        O277   0.964       .  S
O277       Ni285   1.926       .  S
O277       Ni279   1.907   1_565  S
O277       Ni284   1.916       .  S
O278       Ni279   1.932       .  S
Ni279       O283   1.898       .  S
Ni279       O281   1.923       .  S
O280       Ni285   1.938   1_545  S
C282        O283   1.263       .  A
C282       C4694   1.471       .  S
O287       Ni293   1.930       .  S
O287        C308   1.271       .  A
O288       Ni311   1.925       .  S
O288        C297   1.272       .  A
O289       Ni293   1.899       .  S
O289       Ni311   1.904   1_545  S
O289       Ni305   1.912       .  S
O289        H312   0.966       .  S
C290        O307   1.278       .  A
C290        O299   1.276   1_545  A
C290       C4665   1.478       .  S
O291       Ni310   1.925       .  S
O291        C297   1.270       .  A
O292       Ni310   1.912       .  S
O292        C294   1.270   1_565  A
Ni293       O296   1.915       .  S
Ni293       O298   1.908       .  S
C294        O304   1.266       .  A
C294       C4845   1.482       .  S
O295       Ni311   1.929       .  S
O295        C301   1.280   1_565  A
O296        C301   1.277       .  A
C297       C4894   1.489       .  S
O298        C300   1.270       .  A
O299       Ni310   1.919       .  S
C300        O306   1.274   1_545  A
C300       C4585   1.484       .  S
C301       C4645   1.477       .  S
H302        O303   0.966       .  S
O303       Ni311   1.914       .  S
O303       Ni305   1.905   1_565  S
O303       Ni310   1.908       .  S
O304       Ni305   1.916       .  S
Ni305       O309   1.909       .  S
Ni305       O307   1.922       .  S
O306       Ni311   1.929       .  S
C308        O309   1.267       .  A
C308       C4605   1.485       .  S
O313       Ni319   1.931       .  S
O313        C334   1.270       .  A
O314       Ni337   1.920       .  S
O314        C323   1.270       .  A
O315       Ni319   1.904       .  S
O315       Ni337   1.903       .  S
O315       Ni331   1.912       .  S
O315        H338   0.967       .  S
C316        O333   1.275       .  A
C316        O325   1.275       .  A
C316       C4534   1.474   1_554  S
O317       Ni336   1.923       .  S
O317        C323   1.269       .  A
O318       Ni336   1.900       .  S
O318        C320   1.267       .  A
Ni319       O322   1.917       .  S
Ni319       O324   1.908       .  S
C320        O330   1.273       .  A
C320       C4574   1.481       .  S
O321       Ni337   1.934       .  S
O321        C327   1.281       .  A
O322        C327   1.277       .  A
C323       C5414   1.480       .  S
O324        C326   1.269       .  A
O325       Ni336   1.925       .  S
C326        O332   1.269       .  A
C326       C4514   1.474       .  S
C327       C4545   1.485       .  S
H328        O329   0.968       .  S
O329       Ni337   1.917       .  S
O329       Ni331   1.910       .  S
O329       Ni336   1.904       .  S
O330       Ni331   1.934       .  S
Ni331       O335   1.914       .  S
Ni331       O333   1.916       .  S
O332       Ni337   1.915       .  S
C334        O335   1.269       .  A
C334       C4734   1.478       .  S
O339       Ni345   1.929       .  S
O339        C360   1.271       .  A
O340       Ni363   1.914       .  S
O340        C349   1.269       .  A
O341       Ni345   1.904       .  S
O341       Ni363   1.899       .  S
O341       Ni357   1.901       .  S
O341        H364   0.964       .  S
C342        O359   1.270       .  A
C342        O351   1.273       .  A
C342       C4554   1.475       .  S
O343       Ni362   1.920       .  S
O343        C349   1.269       .  A
O344       Ni362   1.896       .  S
O344        C346   1.267       .  A
Ni345       O348   1.912       .  S
Ni345       O350   1.916       .  S
C346        O356   1.273       .  A
C346       C4485   1.472       .  S
O347       Ni363   1.932       .  S
O347        C353   1.281       .  A
O348        C353   1.275       .  A
C349       C5334   1.474       .  S
O350        C352   1.270       .  A
O351       Ni362   1.929       .  S
C352        O358   1.268       .  A
C352       C4465   1.476       .  S
C353       C4525   1.484       .  S
H354        O355   0.969       .  S
O355       Ni363   1.923       .  S
O355       Ni357   1.915       .  S
O355       Ni362   1.910       .  S
O356       Ni357   1.938       .  S
Ni357       O361   1.906       .  S
Ni357       O359   1.906       .  S
O358       Ni363   1.911       .  S
C360        O361   1.265       .  A
C360       C4834   1.477       .  S
O365       Ni371   1.933       .  S
O365        C386   1.272       .  A
O366       Ni389   1.912       .  S
O366        C375   1.269       .  A
O367       Ni371   1.914       .  S
O367       Ni389   1.907       .  S
O367       Ni383   1.913       .  S
O367        H390   0.963       .  S
C368        O385   1.273       .  A
C368        O377   1.275       .  A
C368       C4425   1.484       .  S
O369       Ni388   1.931       .  S
O369        C375   1.270       .  A
O370       Ni388   1.898       .  S
O370        C372   1.268       .  A
Ni371       O374   1.918       .  S
Ni371       O376   1.918       .  S
C372        O382   1.274       .  A
C372       C4494   1.477       .  S
O373       Ni389   1.930       .  S
O373        C379   1.280       .  A
O374        C379   1.275       .  A
C375       C5225   1.482       .  S
O376        C378   1.272       .  A
O377       Ni388   1.932       .  S
C378        O384   1.271       .  A
C378       C4414   1.491       .  S
C379       C4454   1.485       .  S
H380        O381   0.965       .  S
O381       Ni389   1.924       .  S
O381       Ni383   1.916       .  S
O381       Ni388   1.917       .  S
O382       Ni383   1.937       .  S
Ni383       O387   1.915       .  S
Ni383       O385   1.913       .  S
O384       Ni389   1.925       .  S
C386        O387   1.268       .  A
C386       C4614   1.489       .  S
O391       Ni397   1.929       .  S
O391        C412   1.271   1_556  A
O392       Ni415   1.906       .  S
O392        C401   1.267       .  A
O393       Ni397   1.904       .  S
O393       Ni415   1.895       .  S
O393       Ni409   1.911   1_556  S
O393        H416   0.963       .  S
C394        O411   1.275       .  A
C394        O403   1.278       .  A
C394       C4445   1.481       .  S
O395       Ni414   1.933   1_556  S
O395        C401   1.271       .  A
O396       Ni414   1.907       .  S
O396        C398   1.269       .  A
Ni397       O400   1.919       .  S
Ni397       O402   1.916       .  S
C398        O408   1.273       .  A
C398       C4565   1.483       .  S
O399       Ni415   1.928       .  S
O399        C405   1.280       .  A
O400        C405   1.278       .  A
C401       C5174   1.472       .  S
O402        C404   1.270       .  A
O403       Ni414   1.932       .  S
C404        O410   1.275       .  A
C404       C4385   1.495       .  S
C405       C4434   1.480       .  S
H406        O407   0.965       .  S
O407       Ni415   1.917   1_554  S
O407       Ni409   1.903       .  S
O407       Ni414   1.910       .  S
O408       Ni409   1.936       .  S
Ni409       O413   1.899       .  S
Ni409       O411   1.912       .  S
O410       Ni415   1.937       .  S
C412        O413   1.265       .  A
C412       C4685   1.467       .  S
O417       Ni423   1.925       .  S
O417        C438   1.271       .  A
O418       Ni441   1.912       .  S
O418        C427   1.271       .  A
O419       Ni423   1.898       .  S
O419       Ni441   1.899       .  S
O419       Ni435   1.918       .  S
O419        H442   0.966       .  S
C420        O437   1.282       .  A
C420        O429   1.278       .  A
C420       C4325   1.482       .  S
O421       Ni440   1.929       .  S
O421        C427   1.274       .  A
O422       Ni440   1.918       .  S
O422        C424   1.270       .  A
Ni423       O426   1.922       .  S
Ni423       O428   1.914       .  S
C424        O434   1.273       .  A
C424       C4274   1.492       .  S
O425       Ni441   1.926       .  S
O425        C431   1.279       .  A
O426        C431   1.277       .  A
C427       C4354   1.480       .  S
O428        C430   1.270       .  A
O429       Ni440   1.918       .  S
C430        O436   1.276       .  A
C430       C4365   1.492       .  S
C431       C4314   1.488       .  S
H432        O433   0.966       .  S
O433       Ni441   1.913       .  S
O433       Ni435   1.894       .  S
O433       Ni440   1.894       .  S
O434       Ni435   1.932       .  S
Ni435       O439   1.912       .  S
Ni435       O437   1.931       .  S
O436       Ni441   1.939       .  S
C438        O439   1.268       .  A
C438       C4294   1.473       .  S
O443       Ni449   1.917       .  S
O443        C464   1.269       .  A
O444       Ni467   1.888       .  S
O444        C453   1.258       .  A
O445       Ni449   1.925       .  S
O445       Ni467   1.908       .  S
O445       Ni461   1.923       .  S
O445        H468   0.966       .  S
C446        O463   1.278       .  A
C446        O455   1.274       .  A
C446       C4305   1.490       .  S
O447       Ni466   1.940       .  S
O447        C453   1.272       .  A
O448       Ni466   1.911       .  S
O448        C450   1.271       .  A
Ni449       O452   1.928       .  S
Ni449       O454   1.907       .  S
C450        O460   1.277       .  A
C450       C4185   1.490       .  S
O451       Ni467   1.913       .  S
O451        C457   1.268       .  A
O452        C457   1.272       .  A
C453       C4234   1.471       .  S
O454        C456   1.267       .  A
O455       Ni466   1.921       .  S
C456        O462   1.271       .  A
C456       C4245   1.485       .  S
C457       C4334   1.485   1_556  S
H458        O459   0.964       .  S
O459       Ni467   1.911       .  S
O459       Ni461   1.916       .  S
O459       Ni466   1.918       .  S
O460       Ni461   1.942       .  S
Ni461       O465   1.917       .  S
Ni461       O463   1.928       .  S
O462       Ni467   1.936       .  S
C464        O465   1.271       .  A
C464       C4205   1.472       .  S
O469       Ni475   1.923   1_554  S
O469        C490   1.267       .  A
O470       Ni493   1.906       .  S
O470        C479   1.268       .  A
O471       Ni475   1.914       .  S
O471       Ni493   1.908       .  S
O471       Ni487   1.921   1_556  S
O471        H494   0.969       .  S
C472        O489   1.277       .  A
C472        O481   1.277       .  A
C472       C4145   1.481       .  S
O473       Ni492   1.936       .  S
O473        C479   1.273   1_554  A
O474       Ni492   1.908       .  S
O474        C476   1.270       .  A
Ni475       O478   1.919       .  S
Ni475       O480   1.908       .  S
C476        O486   1.274       .  A
C476       C5394   1.485       .  S
O477       Ni493   1.926       .  S
O477        C483   1.278       .  A
O478        C483   1.275       .  A
C479       C4165   1.484       .  S
O480        C482   1.269       .  A
O481       Ni492   1.927       .  S
C482        O488   1.269       .  A
C482       C4254   1.478       .  S
C483       C4134   1.489       .  S
H484        O485   0.966       .  S
O485       Ni493   1.914   1_554  S
O485       Ni487   1.908       .  S
O485       Ni492   1.905       .  S
O486       Ni487   1.933       .  S
Ni487       O491   1.918       .  S
Ni487       O489   1.917       .  S
O488       Ni493   1.919       .  S
C490        O491   1.267       .  A
C490       C4105   1.474       .  S
O495       Ni501   1.912       .  S
O495        C516   1.264       .  A
O496       Ni519   1.919       .  S
O496        C505   1.271       .  A
O497       Ni501   1.912       .  S
O497       Ni519   1.907       .  S
O497       Ni513   1.917       .  S
O497        H520   0.968       .  S
C498        O515   1.276       .  A
C498        O507   1.278       .  A
C498       C4125   1.476       .  S
O499       Ni518   1.943       .  S
O499        C505   1.275       .  A
O500       Ni518   1.912       .  S
O500        C502   1.271       .  A
Ni501       O504   1.909       .  S
Ni501       O506   1.909       .  S
C502        O512   1.276       .  A
C502       C5305   1.496       .  S
O503       Ni519   1.931       .  S
O503        C509   1.280       .  A
O504        C509   1.274       .  A
C505       C4094   1.498       .  S
O506        C508   1.268       .  A
O507       Ni518   1.932       .  S
C508        O514   1.270       .  A
C508       C4374   1.481       .  S
C509       C4154   1.476       .  S
H510        O511   0.966       .  S
O511       Ni519   1.916       .  S
O511       Ni513   1.914       .  S
O511       Ni518   1.904       .  S
O512       Ni513   1.937       .  S
Ni513       O517   1.932       .  S
Ni513       O515   1.914       .  S
O514       Ni519   1.923       .  S
C516        O517   1.271       .  A
C516       C4065   1.478       .  S
O521       Ni527   1.912   1_554  S
O521        C542   1.263       .  A
O522       Ni545   1.904       .  S
O522        C531   1.269       .  A
O523       Ni527   1.916       .  S
O523       Ni545   1.908       .  S
O523       Ni539   1.921   1_556  S
O523        H546   0.969       .  S
C524        O541   1.273       .  A
C524        O533   1.277       .  A
C524       C4025   1.470       .  S
O525       Ni544   1.934       .  S
O525        C531   1.275   1_554  A
O526       Ni544   1.917       .  S
O526        C528   1.271       .  A
Ni527       O530   1.912       .  S
Ni527       O532   1.908       .  S
C528        O538   1.278       .  A
C528       C3965   1.507       .  S
O529       Ni545   1.933       .  S
O529        C535   1.279       .  A
O530        C535   1.274       .  A
C531       C4225   1.478       .  S
O532        C534   1.267       .  A
O533       Ni544   1.926       .  S
C534        O540   1.272       .  A
C534       C4054   1.493       .  S
C535       C4014   1.478       .  S
H536        O537   0.964       .  S
O537       Ni545   1.908   1_554  S
O537       Ni539   1.903       .  S
O537       Ni544   1.901       .  S
O538       Ni539   1.954       .  S
Ni539       O543   1.917       .  S
Ni539       O541   1.901       .  S
O540       Ni545   1.936       .  S
C542        O543   1.266       .  A
C542       C3985   1.470       .  S
O547       Ni553   1.909       .  S
O547        C568   1.263       .  A
O548       Ni571   1.915       .  S
O548        C557   1.270       .  A
O549       Ni553   1.913       .  S
O549       Ni571   1.908       .  S
O549       Ni565   1.923       .  S
O549        H572   0.969       .  S
C550        O567   1.279       .  A
C550        O559   1.279       .  A
C550       C4005   1.492       .  S
O551       Ni570   1.934       .  S
O551        C557   1.273       .  A
O552       Ni570   1.907       .  S
O552        C554   1.269       .  A
Ni553       O556   1.911       .  S
Ni553       O558   1.904       .  S
C554        O564   1.277       .  A
C554       C3914   1.493       .  S
O555       Ni571   1.931       .  S
O555        C561   1.280       .  A
O556        C561   1.274       .  A
C557       C4345   1.485       .  S
O558        C560   1.267       .  A
O559       Ni570   1.930       .  S
C560        O566   1.270       .  A
C560       C3945   1.480       .  S
C561       C4034   1.476       .  S
H562        O563   0.966       .  S
O563       Ni571   1.920       .  S
O563       Ni565   1.905       .  S
O563       Ni570   1.900       .  S
O564       Ni565   1.943       .  S
Ni565       O569   1.924       .  S
Ni565       O567   1.922       .  S
O566       Ni571   1.929       .  S
C568        O569   1.268       .  A
C568       C3925   1.470       .  S
O573       Ni579   1.916       .  S
O573        C594   1.267       .  A
O574       Ni597   1.912       .  S
O574        C583   1.268       .  A
O575       Ni579   1.912       .  S
O575       Ni597   1.909       .  S
O575       Ni591   1.924       .  S
O575        H598   0.967       .  S
C576        O593   1.280       .  A
C576        O585   1.277       .  A
C576       C3894   1.483       .  S
O577       Ni596   1.948       .  S
O577        C583   1.276       .  A
O578       Ni596   1.915       .  S
O578        C580   1.272       .  A
Ni579       O582   1.916       .  S
Ni579       O584   1.913       .  S
C580        O590   1.270       .  A
C580       C4505   1.484       .  S
O581       Ni597   1.925       .  S
O581        C587   1.277       .  A
O582        C587   1.275       .  A
C583       C4085   1.494       .  S
O584        C586   1.270       .  A
O585       Ni596   1.926       .  S
C586        O592   1.271       .  A
C586       C3954   1.480       .  S
C587       C3865   1.482       .  S
H588        O589   0.965       .  S
O589       Ni597   1.911       .  S
O589       Ni591   1.918       .  S
O589       Ni596   1.907       .  S
O590       Ni591   1.926       .  S
Ni591       O595   1.929       .  S
Ni591       O593   1.926       .  S
O592       Ni597   1.924       .  S
C594        O595   1.270       .  A
C594       C3845   1.481       .  S
O599       Ni605   1.906       .  S
O599        C620   1.263       .  A
O600       Ni623   1.916       .  S
O600        C609   1.270       .  A
O601       Ni605   1.904       .  S
O601       Ni623   1.901       .  S
O601       Ni617   1.919       .  S
O601        H624   0.967       .  S
C602        O619   1.276       .  A
C602        O611   1.277       .  A
C602       C3874   1.478       .  S
O603       Ni622   1.939       .  S
O603        C609   1.274       .  A
O604       Ni622   1.906       .  S
O604        C606   1.269       .  A
Ni605       O608   1.909       .  S
Ni605       O610   1.912       .  S
C606        O616   1.270       .  A
C606       C4474   1.478       .  S
O607       Ni623   1.936       .  S
O607        C613   1.281       .  A
O608        C613   1.274       .  A
C609       C4174   1.494       .  S
O610        C612   1.268       .  A
O611       Ni622   1.932       .  S
C612        O618   1.271       .  A
C612       C4045   1.484       .  S
C613       C3885   1.479       .  S
H614        O615   0.967       .  S
O615       Ni623   1.919       .  S
O615       Ni617   1.915       .  S
O615       Ni622   1.905       .  S
O616       Ni617   1.925       .  S
Ni617       O621   1.921       .  S
Ni617       O619   1.915       .  S
O618       Ni623   1.928       .  S
C620        O621   1.267       .  A
C620       C3825   1.471       .  S
O625       Ni631   1.920       .  S
O625        C646   1.269       .  A
O626       Ni649   1.915       .  S
O626        C635   1.271       .  A
O627       Ni631   1.912       .  S
O627       Ni649   1.902       .  S
O627       Ni643   1.918       .  S
O627        H650   0.969       .  S
C628        O645   1.276       .  A
C628        O637   1.278       .  A
C628       C3745   1.487       .  S
O629       Ni648   1.934       .  S
O629        C635   1.274       .  A
O630       Ni648   1.912       .  S
O630        C632   1.270       .  A
Ni631       O634   1.914       .  S
Ni631       O636   1.918       .  S
C632        O642   1.278       .  A
C632       C3725   1.499       .  S
O633       Ni649   1.932       .  S
O633        C639   1.282       .  A
O634        C639   1.275       .  A
C635       C3794   1.490       .  S
O636        C638   1.271       .  A
O637       Ni648   1.927       .  S
C638        O644   1.275       .  A
C638       C3814   1.501       .  S
C639       C3765   1.481       .  S
H640        O641   0.965       .  S
O641       Ni649   1.924       .  S
O641       Ni643   1.906       .  S
O641       Ni648   1.906       .  S
O642       Ni643   1.944       .  S
Ni643       O647   1.913       .  S
Ni643       O645   1.920       .  S
O644       Ni649   1.942       .  S
C646        O647   1.267       .  A
C646       C4285   1.472       .  S
O651       Ni657   1.915       .  S
O651        C672   1.265       .  A
O652       Ni675   1.921       .  S
O652        C661   1.271       .  A
O653       Ni657   1.907       .  S
O653       Ni675   1.907       .  S
O653       Ni669   1.915       .  S
O653        H676   0.967       .  S
C654        O671   1.274       .  A
C654        O663   1.280       .  A
C654       C3774   1.484       .  S
O655       Ni674   1.936       .  S
O655        C661   1.273       .  A
O656       Ni674   1.902       .  S
O656        C658   1.266       .  A
Ni657       O660   1.911       .  S
Ni657       O662   1.913       .  S
C658        O668   1.275       .  A
C658       C3665   1.488       .  S
O659       Ni675   1.936       .  S
O659        C665   1.282       .  A
O660        C665   1.276       .  A
C661       C3685   1.496       .  S
O662        C664   1.268       .  A
O663       Ni674   1.942       .  S
C664        O670   1.271       .  A
C664       C3705   1.484       .  S
C665       C3754   1.483       .  S
H666        O667   0.967       .  S
O667       Ni675   1.918       .  S
O667       Ni669   1.912       .  S
O667       Ni674   1.904       .  S
O668       Ni669   1.942       .  S
Ni669       O673   1.922       .  S
Ni669       O671   1.906       .  S
O670       Ni675   1.927       .  S
C672        O673   1.267       .  A
C672       C4214   1.474       .  S
O677       Ni683   1.921       .  S
O677        C698   1.270       .  A
O678       Ni701   1.889       .  S
O678        C687   1.260       .  A
O679       Ni683   1.919       .  S
O679       Ni701   1.905       .  S
O679       Ni695   1.919       .  S
O679        H702   0.966       .  S
C680        O697   1.277   1_556  A
C680        O689   1.276   1_556  A
C680       C3614   1.484       .  S
O681       Ni700   1.940       .  S
O681        C687   1.272       .  A
O682       Ni700   1.908       .  S
O682        C684   1.269       .  A
Ni683       O686   1.936       .  S
Ni683       O688   1.910       .  S
C684        O694   1.276       .  A
C684       C4994   1.489       .  S
O685       Ni701   1.912       .  S
O685        C691   1.269       .  A
O686        C691   1.275       .  A
C687       C3645   1.474       .  S
O688        C690   1.268       .  A
O689       Ni700   1.924       .  S
C690        O696   1.275       .  A
C690       C3805   1.490       .  S
C691       C3625   1.492       .  S
H692        O693   0.969       .  S
O693       Ni701   1.911       .  S
O693       Ni695   1.915       .  S
O693       Ni700   1.921       .  S
O694       Ni695   1.938       .  S
Ni695       O699   1.921       .  S
Ni695       O697   1.921       .  S
O696       Ni701   1.949       .  S
C698        O699   1.272       .  A
C698       C4114   1.477       .  S
O703       Ni709   1.924       .  S
O703        C724   1.267       .  A
O704       Ni727   1.924       .  S
O704        C713   1.273       .  A
O705       Ni709   1.908       .  S
O705       Ni727   1.910       .  S
O705       Ni721   1.921       .  S
O705        H728   0.966       .  S
C706        O723   1.283       .  A
C706        O715   1.280       .  A
C706       C3634   1.482       .  S
O707       Ni726   1.943       .  S
O707        C713   1.276       .  A
O708       Ni726   1.910       .  S
O708        C710   1.270       .  A
Ni709       O712   1.923       .  S
Ni709       O714   1.902       .  S
C710        O720   1.274       .  A
C710       C5054   1.491       .  S
O711       Ni727   1.921       .  S
O711        C717   1.277       .  A
O712        C717   1.277       .  A
C713       C3585   1.502       .  S
O714        C716   1.268       .  A
O715       Ni726   1.927       .  S
C716        O722   1.276       .  A
C716       C3714   1.485       .  S
C717       C3605   1.482       .  S
H718        O719   0.966       .  S
O719       Ni727   1.911       .  S
O719       Ni721   1.906       .  S
O719       Ni726   1.901       .  S
O720       Ni721   1.932       .  S
Ni721       O725   1.935       .  S
Ni721       O723   1.930       .  S
O722       Ni727   1.939       .  S
C724        O725   1.273       .  A
C724       C4074   1.486       .  S
O729       Ni735   1.924       .  S
O729        C750   1.268       .  A
O730       Ni753   1.924       .  S
O730        C739   1.271       .  A
O731       Ni735   1.914       .  S
O731       Ni753   1.911   1_545  S
O731       Ni747   1.918       .  S
O731        H754   0.965       .  S
C732        O749   1.278   1_565  A
C732        O741   1.281       .  A
C732       C3525   1.487   1_554  S
O733       Ni752   1.936       .  S
O733        C739   1.272       .  A
O734       Ni752   1.902       .  S
O734        C736   1.267       .  A
Ni735       O738   1.916       .  S
Ni735       O740   1.912       .  S
C736        O746   1.273   1_565  A
C736       C3514   1.488       .  S
O737       Ni753   1.924       .  S
O737        C743   1.278   1_565  A
O738        C743   1.275       .  A
C739       C3785   1.497       .  S
O740        C742   1.270       .  A
O741       Ni752   1.939       .  S
C742        O748   1.273   1_545  A
C742       C3565   1.491       .  S
C743       C3545   1.476       .  S
H744        O745   0.967       .  S
O745       Ni753   1.915       .  S
O745       Ni747   1.905   1_565  S
O745       Ni752   1.903       .  S
O746       Ni747   1.934       .  S
Ni747       O751   1.917       .  S
Ni747       O749   1.916       .  S
O748       Ni753   1.932       .  S
C750        O751   1.267       .  A
C750       C3994   1.475       .  S
O755       Ni761   1.929       .  S
O755        C776   1.269       .  A
O756       Ni779   1.896       .  S
O756        C765   1.265       .  A
O757       Ni761   1.918       .  S
O757       Ni779   1.904   1_545  S
O757       Ni773   1.916       .  S
O757        H780   0.967       .  S
C758        O775   1.273   1_565  A
C758        O767   1.278       .  A
C758       C3554   1.494   1_565  S
O759       Ni778   1.945       .  S
O759        C765   1.278       .  A
O760       Ni778   1.918       .  S
O760        C762   1.272       .  A
Ni761       O764   1.924       .  S
Ni761       O766   1.918       .  S
C762        O772   1.276   1_565  A
C762       C3465   1.518   1_565  S
O763       Ni779   1.924       .  S
O763        C769   1.277   1_565  A
O764        C769   1.276       .  A
C765       C3694   1.482       .  S
O766        C768   1.271       .  A
O767       Ni778   1.937       .  S
C768        O774   1.270   1_545  A
C768       C3485   1.485       .  S
C769       C3534   1.491       .  S
H770        O771   0.964       .  S
O771       Ni779   1.914       .  S
O771       Ni773   1.900   1_565  S
O771       Ni778   1.912       .  S
O772       Ni773   1.949       .  S
Ni773       O777   1.908       .  S
Ni773       O775   1.912       .  S
O774       Ni779   1.925       .  S
C776        O777   1.265       .  A
C776       C3934   1.473       .  S
O781       Ni787   1.924       .  S
O781        C802   1.268       .  A
O782       Ni805   1.910       .  S
O782        C791   1.269       .  A
O783       Ni787   1.909       .  S
O783       Ni805   1.903   1_545  S
O783       Ni799   1.925       .  S
O783        H806   0.969       .  S
C784        O801   1.281   1_565  A
C784        O793   1.278       .  A
C784       C3434   1.490       .  S
O785       Ni804   1.923       .  S
O785        C791   1.269       .  A
O786       Ni804   1.900       .  S
O786        C788   1.267       .  A
Ni787       O790   1.928       .  S
Ni787       O792   1.904       .  S
C788        O798   1.275   1_565  A
C788       C4774   1.481       .  S
O789       Ni805   1.928       .  S
O789        C795   1.279   1_565  A
O790        C795   1.278       .  A
C791       C3654   1.476       .  S
O792        C794   1.268       .  A
O793       Ni804   1.919       .  S
C794        O800   1.272   1_545  A
C794       C3574   1.486       .  S
C795       C3445   1.484       .  S
H796        O797   0.968       .  S
O797       Ni805   1.919       .  S
O797       Ni799   1.898   1_565  S
O797       Ni804   1.900       .  S
O798       Ni799   1.936       .  S
Ni799       O803   1.921       .  S
Ni799       O801   1.930       .  S
O800       Ni805   1.934       .  S
C802        O803   1.270       .  A
C802       C3854   1.477       .  S
O807       Ni813   1.926       .  S
O807        C828   1.267       .  A
O808       Ni831   1.908       .  S
O808        C817   1.269       .  A
O809       Ni813   1.916       .  S
O809       Ni831   1.910   1_545  S
O809       Ni825   1.911       .  S
O809        H832   0.965       .  S
C810        O827   1.274   1_565  A
C810        O819   1.277       .  A
C810       C3454   1.492   1_565  S
O811       Ni830   1.943       .  S
O811        C817   1.275       .  A
O812       Ni830   1.911       .  S
O812        C814   1.270   1_565  A
Ni813       O816   1.921       .  S
Ni813       O818   1.909       .  S
C814        O824   1.272       .  A
C814       C4705   1.502       .  S
O815       Ni831   1.913       .  S
O815        C821   1.274   1_565  A
O816        C821   1.275       .  A
C817       C3594   1.493       .  S
O818        C820   1.269       .  A
O819       Ni830   1.931       .  S
C820        O826   1.271   1_545  A
C820       C3494   1.480       .  S
C821       C3425   1.479       .  S
H822        O823   0.965       .  S
O823       Ni831   1.907       .  S
O823       Ni825   1.910   1_565  S
O823       Ni830   1.913       .  S
O824       Ni825   1.934       .  S
Ni825       O829   1.917       .  S
Ni825       O827   1.913       .  S
O826       Ni831   1.927       .  S
C828        O829   1.267       .  A
C828       C3834   1.476       .  S
O833       Ni839   1.944       .  S
O833        C854   1.275       .  A
O834       Ni857   1.915       .  S
O834        C843   1.269       .  A
O835       Ni839   1.913       .  S
O835       Ni857   1.908   1_545  S
O835       Ni851   1.913       .  S
O835        H858   0.968       .  S
C836        O853   1.273       .  A
C836        O845   1.271   1_545  A
C836       C3365   1.471       .  S
O837       Ni856   1.911       .  S
O837        C843   1.266       .  A
O838       Ni856   1.901       .  S
O838        C840   1.266       .  A
Ni839       O842   1.932       .  S
Ni839       O844   1.908       .  S
C840        O850   1.278   1_565  A
C840       C3414   1.492       .  S
O841       Ni857   1.917       .  S
O841        C847   1.275   1_565  A
O842        C847   1.280       .  A
C843       C3334   1.471       .  S
O844        C846   1.268       .  A
O845       Ni856   1.915       .  S
C846        O852   1.278       .  A
C846       C3314   1.486       .  S
C847       C3354   1.492       .  S
H848        O849   0.969       .  S
O849       Ni857   1.911       .  S
O849       Ni851   1.908   1_565  S
O849       Ni856   1.911       .  S
O850       Ni851   1.957       .  S
Ni851       O855   1.900       .  S
Ni851       O853   1.912       .  S
O852       Ni857   1.945   1_545  S
C854        O855   1.267       .  A
C854       C3394   1.486       .  S
O859       Ni865   1.938       .  S
O859        C880   1.275       .  A
O860       Ni883   1.925       .  S
O860        C869   1.269       .  A
O861       Ni865   1.898       .  S
O861       Ni883   1.900   1_545  S
O861       Ni877   1.913       .  S
O861        H884   0.967       .  S
C862        O879   1.280   1_565  A
C862        O871   1.276       .  A
C862       C3345   1.487       .  S
O863       Ni882   1.918       .  S
O863        C869   1.268       .  A
O864       Ni882   1.907       .  S
O864        C866   1.269       .  A
Ni865       O868   1.922       .  S
Ni865       O870   1.922       .  S
C866        O876   1.273   1_565  A
C866       C3294   1.491   1_565  S
O867       Ni883   1.930       .  S
O867        C873   1.283   1_565  A
O868        C873   1.279       .  A
C869       C3254   1.483       .  S
O870        C872   1.272       .  A
O871       Ni882   1.919       .  S
C872        O878   1.274   1_545  A
C872       C3225   1.494       .  S
C873       C3374   1.482       .  S
H874        O875   0.967       .  S
O875       Ni883   1.931       .  S
O875       Ni877   1.908   1_565  S
O875       Ni882   1.911       .  S
O876       Ni877   1.933       .  S
Ni877       O881   1.915       .  S
Ni877       O879   1.932       .  S
O878       Ni883   1.934       .  S
C880        O881   1.271       .  A
C880       C3274   1.485       .  S
O885       Ni891   1.935       .  S
O885        C906   1.272       .  A
O886       Ni909   1.904       .  S
O886        C895   1.265       .  A
O887       Ni891   1.914       .  S
O887       Ni909   1.905   1_545  S
O887       Ni903   1.912       .  S
O887        H910   0.963       .  S
C888        O905   1.272       .  A
C888        O897   1.270   1_545  A
C888       C3185   1.481       .  S
O889       Ni908   1.910       .  S
O889        C895   1.266       .  A
O890       Ni908   1.906       .  S
O890        C892   1.268       .  A
Ni891       O894   1.923       .  S
Ni891       O896   1.911       .  S
C892        O902   1.277   1_565  A
C892       C3405   1.497       .  S
O893       Ni909   1.916       .  S
O893        C899   1.274   1_565  A
O894        C899   1.275       .  A
C895       C3145   1.466       .  S
O896        C898   1.270       .  A
O897       Ni908   1.920       .  S
C898        O904   1.278   1_545  A
C898       C3474   1.497       .  S
C899       C3174   1.485       .  S
H900        O901   0.969       .  S
O901       Ni909   1.925       .  S
O901       Ni903   1.914   1_565  S
O901       Ni908   1.925       .  S
O902       Ni903   1.952       .  S
Ni903       O907   1.902       .  S
Ni903       O905   1.914       .  S
O904       Ni909   1.948       .  S
C906        O907   1.266       .  A
C906       C3214   1.476       .  S
O911       Ni917   1.931       .  S
O911        C932   1.275       .  A
O912       Ni935   1.915       .  S
O912        C921   1.266       .  A
O913       Ni917   1.903       .  S
O913       Ni935   1.897   1_545  S
O913       Ni929   1.915       .  S
O913        H936   0.967       .  S
C914        O931   1.280   1_565  A
C914        O923   1.275       .  A
C914       C3165   1.480       .  S
O915       Ni934   1.913       .  S
O915        C921   1.266       .  A
O916       Ni934   1.906       .  S
O916        C918   1.268       .  A
Ni917       O920   1.919       .  S
Ni917       O922   1.926       .  S
C918        O928   1.269   1_565  A
C918       C3285   1.477   1_565  S
O919       Ni935   1.929       .  S
O919        C925   1.281   1_565  A
O920        C925   1.277       .  A
C921       C3114   1.471       .  S
O922        C924   1.273       .  A
O923       Ni934   1.915       .  S
C924        O930   1.270   1_545  A
C924       C3505   1.492       .  S
C925       C3194   1.484   1_556  S
H926        O927   0.966       .  S
O927       Ni935   1.924       .  S
O927       Ni929   1.901   1_565  S
O927       Ni934   1.906       .  S
O928       Ni929   1.921       .  S
Ni929       O933   1.907       .  S
Ni929       O931   1.929       .  S
O930       Ni935   1.920       .  S
C932        O933   1.268       .  A
C932       C3125   1.485       .  S
O937       Ni943   1.933       .  S
O937        C958   1.272       .  A
O938       Ni961   1.922       .  S
O938        C947   1.271       .  A
O939       Ni943   1.903       .  S
O939       Ni961   1.911       .  S
O939       Ni955   1.919       .  S
O939        H962   0.966       .  S
C940        O957   1.279       .  A
C940        O949   1.277       .  A
C940       C3065   1.503       .  S
O941       Ni960   1.924       .  S
O941        C947   1.269       .  A
O942       Ni960   1.904       .  S
O942        C944   1.266       .  A
Ni943       O946   1.919       .  S
Ni943       O948   1.920       .  S
C944        O954   1.273       .  A
C944       C3085   1.493       .  S
O945       Ni961   1.925       .  S
O945        C951   1.279       .  A
O946        C951   1.276       .  A
C947       C3034   1.491       .  S
O948        C950   1.272       .  A
O949       Ni960   1.921       .  S
C950        O956   1.279       .  A
C950       C3974   1.503       .  S
C951       C3045   1.482       .  S
H952        O953   0.966       .  S
O953       Ni961   1.916       .  S
O953       Ni955   1.898       .  S
O953       Ni960   1.907       .  S
O954       Ni955   1.941       .  S
Ni955       O959   1.910       .  S
Ni955       O957   1.929       .  S
O956       Ni961   1.948       .  S
C958        O959   1.267       .  A
C958       C3205   1.476       .  S
O963       Ni969   1.931       .  S
O963        C984   1.272       .  A
O964       Ni987   1.910       .  S
O964        C973   1.266       .  A
O965       Ni969   1.914       .  S
O965       Ni987   1.904       .  S
O965       Ni981   1.916       .  S
O965        H988   0.969       .  S
C966        O983   1.275       .  A
C966        O975   1.278       .  A
C966       C3054   1.480       .  S
O967       Ni986   1.927       .  S
O967        C973   1.269       .  A
O968       Ni986   1.903       .  S
O968        C970   1.268       .  A
Ni969       O972   1.921       .  S
Ni969       O974   1.918       .  S
C970        O980   1.277       .  A
C970       C3014   1.492       .  S
O971       Ni987   1.924       .  S
O971        C977   1.279       .  A
O972        C977   1.277       .  A
C973       C2985   1.472       .  S
O974        C976   1.271       .  A
O975       Ni986   1.931       .  S
C976        O982   1.270       .  A
C976       C3905   1.493       .  S
C977       C3074   1.480       .  S
H978        O979   0.965       .  S
O979       Ni987   1.915       .  S
O979       Ni981   1.901       .  S
O979       Ni986   1.908       .  S
O980       Ni981   1.949       .  S
Ni981       O985   1.907       .  S
Ni981       O983   1.911       .  S
O982       Ni987   1.925       .  S
C984        O985   1.267       .  A
C984       C3134   1.481       .  S
O989       Ni995   1.940       .  S
O989       C1010   1.275       .  A
O990      Ni1013   1.913       .  S
O990        C999   1.269       .  A
O991       Ni995   1.893       .  S
O991      Ni1013   1.897       .  S
O991      Ni1007   1.913       .  S
O991       H1014   0.968       .  S
C992       O1009   1.280       .  A
C992       O1001   1.277       .  A
C992       C2974   1.485       .  S
O993      Ni1012   1.925       .  S
O993        C999   1.269       .  A
O994      Ni1012   1.910       .  S
O994        C996   1.269       .  A
Ni995       O998   1.923       .  S
Ni995      O1000   1.918       .  S
C996       O1006   1.272       .  A
C996       C3094   1.485       .  S
O997      Ni1013   1.926       .  S
O997       C1003   1.279       .  A
O998       C1003   1.279       .  A
C999       C2925   1.475       .  S
O1000      C1002   1.271       .  A
O1001     Ni1012   1.920       .  S
C1002      O1008   1.275       .  A
C1002      C2914   1.502       .  S
C1003      C2954   1.481       .  S
H1004      O1005   0.967       .  S
O1005     Ni1013   1.916       .  S
O1005     Ni1007   1.903       .  S
O1005     Ni1012   1.903       .  S
O1006     Ni1007   1.931       .  S
Ni1007     O1011   1.914       .  S
Ni1007     O1009   1.929       .  S
O1008     Ni1013   1.938       .  S
C1010      O1011   1.271       .  A
C1010      C3385   1.497       .  S
O1015     Ni1021   1.938       .  S
O1015      C1036   1.272       .  A
O1016     Ni1039   1.913       .  S
O1016      C1025   1.267       .  A
O1017     Ni1021   1.916       .  S
O1017     Ni1039   1.912       .  S
O1017     Ni1033   1.913       .  S
O1017      H1040   0.963       .  S
C1018      O1035   1.270       .  A
C1018      O1027   1.273       .  A
C1018      C2945   1.468       .  S
O1019     Ni1038   1.918       .  S
O1019      C1025   1.266       .  A
O1020     Ni1038   1.905       .  S
O1020      C1022   1.267       .  A
Ni1021     O1024   1.931       .  S
Ni1021     O1026   1.908       .  S
C1022      O1032   1.275       .  A
C1022      C3005   1.497       .  S
O1023     Ni1039   1.921       .  S
O1023      C1029   1.277   1_556  A
O1024      C1029   1.278   1_556  A
C1025      C2894   1.468       .  S
O1026      C1028   1.268       .  A
O1027     Ni1038   1.923       .  S
C1028      O1034   1.273       .  A
C1028      C2874   1.488       .  S
C1029      C2965   1.489       .  S
H1030      O1031   0.966       .  S
O1031     Ni1039   1.916       .  S
O1031     Ni1033   1.913       .  S
O1031     Ni1038   1.919       .  S
O1032     Ni1033   1.947       .  S
Ni1033     O1037   1.910       .  S
Ni1033     O1035   1.903       .  S
O1034     Ni1039   1.932       .  S
C1036      O1037   1.266       .  A
C1036      C3265   1.486       .  S
O1041     Ni1047   1.938       .  S
O1041      C1062   1.275       .  A
O1042     Ni1065   1.913       .  S
O1042      C1051   1.268       .  A
O1043     Ni1047   1.901       .  S
O1043     Ni1065   1.900       .  S
O1043     Ni1059   1.922       .  S
O1043      H1066   0.964       .  S
C1044      O1061   1.282       .  A
C1044      O1053   1.278       .  A
C1044      C2794   1.486       .  S
O1045     Ni1064   1.913       .  S
O1045      C1051   1.267       .  A
O1046     Ni1064   1.909       .  S
O1046      C1048   1.267       .  A
Ni1047     O1050   1.927       .  S
Ni1047     O1052   1.911       .  S
C1048      O1058   1.271       .  A
C1048      C2845   1.487       .  S
O1049     Ni1065   1.919       .  S
O1049      C1055   1.277       .  A
O1050      C1055   1.279       .  A
C1051      C3154   1.471       .  S
O1052      C1054   1.271       .  A
O1053     Ni1064   1.921       .  S
C1054      O1060   1.279       .  A
C1054      C3734   1.505       .  S
C1055      C2805   1.477       .  S
H1056      O1057   0.969       .  S
O1057     Ni1065   1.917       .  S
O1057     Ni1059   1.892       .  S
O1057     Ni1064   1.906       .  S
O1058     Ni1059   1.933       .  S
Ni1059     O1063   1.900       .  S
Ni1059     O1061   1.933       .  S
O1060     Ni1065   1.946       .  S
C1062      O1063   1.267       .  A
C1062      C2825   1.478       .  S
O1067     Ni1073   1.938       .  S
O1067      C1088   1.274   1_556  A
O1068     Ni1091   1.903       .  S
O1068      C1077   1.264       .  A
O1069     Ni1073   1.912       .  S
O1069     Ni1091   1.903       .  S
O1069     Ni1085   1.913   1_556  S
O1069      H1092   0.969       .  S
C1070      O1087   1.276       .  A
C1070      O1079   1.275       .  A
C1070      C2814   1.475       .  S
O1071     Ni1090   1.927   1_556  S
O1071      C1077   1.269       .  A
O1072     Ni1090   1.909       .  S
O1072      C1074   1.269       .  A
Ni1073     O1076   1.937       .  S
Ni1073     O1078   1.911       .  S
C1074      O1084   1.275       .  A
C1074      C2774   1.493       .  S
O1075     Ni1091   1.918       .  S
O1075      C1081   1.273       .  A
O1076      C1081   1.280       .  A
C1077      C3105   1.472       .  S
O1078      C1080   1.268       .  A
O1079     Ni1090   1.918       .  S
C1080      O1086   1.274       .  A
C1080      C3674   1.491       .  S
C1081      C2785   1.504       .  S
H1082      O1083   0.968       .  S
O1083     Ni1091   1.911   1_554  S
O1083     Ni1085   1.905       .  S
O1083     Ni1090   1.913       .  S
O1084     Ni1085   1.943       .  S
Ni1085     O1089   1.909       .  S
Ni1085     O1087   1.917       .  S
O1086     Ni1091   1.939       .  S
C1088      O1089   1.270       .  A
C1088      C2754   1.485       .  S
O1093     Ni1099   1.932       .  S
O1093      C1114   1.275       .  A
O1094     Ni1117   1.922       .  S
O1094      C1103   1.269       .  A
O1095     Ni1099   1.902       .  S
O1095     Ni1117   1.903       .  S
O1095     Ni1111   1.922       .  S
O1095      H1118   0.965       .  S
C1096      O1113   1.281       .  A
C1096      O1105   1.278       .  A
C1096      C2694   1.481   1_554  S
O1097     Ni1116   1.914       .  S
O1097      C1103   1.266       .  A
O1098     Ni1116   1.905       .  S
O1098      C1100   1.267       .  A
Ni1099     O1102   1.923       .  S
Ni1099     O1104   1.924       .  S
C1100      O1110   1.276       .  A
C1100      C2765   1.501       .  S
O1101     Ni1117   1.926       .  S
O1101      C1107   1.280       .  A
O1102      C1107   1.278       .  A
C1103      C3325   1.475       .  S
O1104      C1106   1.272       .  A
O1105     Ni1116   1.929       .  S
C1106      O1112   1.276       .  A
C1106      C2674   1.501       .  S
C1107      C2705   1.486       .  S
H1108      O1109   0.967       .  S
O1109     Ni1117   1.924       .  S
O1109     Ni1111   1.902       .  S
O1109     Ni1116   1.905       .  S
O1110     Ni1111   1.946       .  S
Ni1111     O1115   1.917       .  S
Ni1111     O1113   1.925       .  S
O1112     Ni1117   1.939       .  S
C1114      O1115   1.271       .  A
C1114      C2734   1.491       .  S
O1119     Ni1125   1.942       .  S
O1119      C1140   1.276       .  A
O1120     Ni1143   1.920       .  S
O1120      C1129   1.270       .  A
O1121     Ni1125   1.906       .  S
O1121     Ni1143   1.909       .  S
O1121     Ni1137   1.918       .  S
O1121      H1144   0.967       .  S
C1122      O1139   1.280       .  A
C1122      O1131   1.276       .  A
C1122      C2714   1.481       .  S
O1123     Ni1142   1.934       .  S
O1123      C1129   1.273       .  A
O1124     Ni1142   1.915       .  S
O1124      C1126   1.272       .  A
Ni1125     O1128   1.931       .  S
Ni1125     O1130   1.914       .  S
C1126      O1136   1.271       .  A
C1126      C2854   1.502       .  S
O1127     Ni1143   1.922       .  S
O1127      C1133   1.277       .  A
O1128      C1133   1.279       .  A
C1129      C3245   1.489       .  S
O1130      C1132   1.272       .  A
O1131     Ni1142   1.925       .  S
C1132      O1138   1.272       .  A
C1132      C2625   1.482       .  S
C1133      C2685   1.493       .  S
H1134      O1135   0.966       .  S
O1135     Ni1143   1.911       .  S
O1135     Ni1137   1.907       .  S
O1135     Ni1142   1.909       .  S
O1136     Ni1137   1.932       .  S
Ni1137     O1141   1.918       .  S
Ni1137     O1139   1.927       .  S
O1138     Ni1143   1.923       .  S
C1140      O1141   1.271       .  A
C1140      C2645   1.494       .  S
O1145     Ni1151   1.934       .  S
O1145      C1166   1.271       .  A
O1146     Ni1169   1.915       .  S
O1146      C1155   1.269       .  A
O1147     Ni1151   1.918       .  S
O1147     Ni1169   1.915       .  S
O1147     Ni1163   1.916       .  S
O1147      H1170   0.969       .  S
C1148      O1165   1.273       .  A
C1148      O1157   1.272       .  A
C1148      C2574   1.480   1_554  S
O1149     Ni1168   1.920       .  S
O1149      C1155   1.269       .  A
O1150     Ni1168   1.902       .  S
O1150      C1152   1.268       .  A
Ni1151     O1154   1.924       .  S
Ni1151     O1156   1.908       .  S
C1152      O1162   1.276       .  A
C1152      C2614   1.485       .  S
O1153     Ni1169   1.924       .  S
O1153      C1159   1.277       .  A
O1154      C1159   1.275       .  A
C1155      C3025   1.481       .  S
O1156      C1158   1.269       .  A
O1157     Ni1168   1.916       .  S
C1158      O1164   1.272       .  A
C1158      C4265   1.484       .  S
C1159      C2594   1.488       .  S
H1160      O1161   0.968       .  S
O1161     Ni1169   1.914       .  S
O1161     Ni1163   1.910       .  S
O1161     Ni1168   1.914       .  S
O1162     Ni1163   1.948       .  S
Ni1163     O1167   1.910       .  S
Ni1163     O1165   1.915       .  S
O1164     Ni1169   1.928       .  S
C1166      O1167   1.267       .  A
C1166      C2745   1.485       .  S
O1171     Ni1177   1.929       .  S
O1171      C1192   1.274       .  A
O1172     Ni1195   1.920       .  S
O1172      C1181   1.269       .  A
O1173     Ni1177   1.903       .  S
O1173     Ni1195   1.901       .  S
O1173     Ni1189   1.922       .  S
O1173      H1196   0.966       .  S
C1174      O1191   1.282       .  A
C1174      O1183   1.277       .  A
C1174      C2585   1.493       .  S
O1175     Ni1194   1.926       .  S
O1175      C1181   1.269       .  A
O1176     Ni1194   1.914       .  S
O1176      C1178   1.270       .  A
Ni1177     O1180   1.914       .  S
Ni1177     O1182   1.921       .  S
C1178      O1188   1.271       .  A
C1178      C2554   1.489       .  S
O1179     Ni1195   1.933       .  S
O1179      C1185   1.281       .  A
O1180      C1185   1.276       .  A
C1181      C2994   1.477       .  S
O1182      C1184   1.273       .  A
O1183     Ni1194   1.924       .  S
C1184      O1190   1.276       .  A
C1184      C4194   1.509       .  S
C1185      C2565   1.475       .  S
H1186      O1187   0.966       .  S
O1187     Ni1195   1.924       .  S
O1187     Ni1189   1.906       .  S
O1187     Ni1194   1.909       .  S
O1188     Ni1189   1.931       .  S
Ni1189     O1193   1.907       .  S
Ni1189     O1191   1.937       .  S
O1190     Ni1195   1.941       .  S
C1192      O1193   1.268       .  A
C1192      C2834   1.482       .  S
O1197     Ni1203   1.936       .  S
O1197      C1218   1.273       .  A
O1198     Ni1221   1.923       .  S
O1198      C1207   1.267       .  A
O1199     Ni1203   1.900       .  S
O1199     Ni1221   1.906       .  S
O1199     Ni1215   1.914       .  S
O1199      H1222   0.965       .  S
C1200      O1217   1.280       .  A
C1200      O1209   1.273       .  A
C1200      C2505   1.482       .  S
O1201     Ni1220   1.909       .  S
O1201      C1207   1.265       .  A
O1202     Ni1220   1.915       .  S
O1202      C1204   1.271       .  A
Ni1203     O1206   1.928       .  S
Ni1203     O1208   1.903       .  S
C1204      O1214   1.271       .  A
C1204      C2545   1.488       .  S
O1205     Ni1221   1.921       .  S
O1205      C1211   1.278       .  A
O1206      C1211   1.280       .  A
C1207      C2934   1.476       .  S
O1208      C1210   1.268       .  A
O1209     Ni1220   1.907       .  S
C1210      O1216   1.273       .  A
C1210      C2485   1.486       .  S
C1211      C2525   1.489       .  S
H1212      O1213   0.968       .  S
O1213     Ni1221   1.922       .  S
O1213     Ni1215   1.909       .  S
O1213     Ni1220   1.912       .  S
O1214     Ni1215   1.928       .  S
Ni1215     O1219   1.917       .  S
Ni1215     O1217   1.927       .  S
O1216     Ni1221   1.932       .  S
C1218      O1219   1.271       .  A
C1218      C2654   1.486       .  S
O1223     Ni1229   1.930       .  S
O1223      C1244   1.271   1_556  A
O1224     Ni1247   1.922       .  S
O1224      C1233   1.271       .  A
O1225     Ni1229   1.903       .  S
O1225     Ni1247   1.908       .  S
O1225     Ni1241   1.913   1_556  S
O1225      H1248   0.965       .  S
C1226      O1243   1.275       .  A
C1226      O1235   1.272       .  A
C1226      C2534   1.486       .  S
O1227     Ni1246   1.909   1_556  S
O1227      C1233   1.265       .  A
O1228     Ni1246   1.900       .  S
O1228      C1230   1.263       .  A
Ni1229     O1232   1.918       .  S
Ni1229     O1234   1.903       .  S
C1230      O1240   1.276       .  A
C1230      C2605   1.491       .  S
O1231     Ni1247   1.916       .  S
O1231      C1237   1.275       .  A
O1232      C1237   1.277       .  A
C1233      C2885   1.474       .  S
O1234      C1236   1.268       .  A
O1235     Ni1246   1.927       .  S
C1236      O1242   1.277       .  A
C1236      C2465   1.492       .  S
C1237      C2514   1.477       .  S
H1238      O1239   0.966       .  S
O1239     Ni1247   1.921   1_554  S
O1239     Ni1241   1.920       .  S
O1239     Ni1246   1.912       .  S
O1240     Ni1241   1.955       .  S
Ni1241     O1245   1.918       .  S
Ni1241     O1243   1.923       .  S
O1242     Ni1247   1.939       .  S
C1244      O1245   1.271       .  A
C1244      C2725   1.486       .  S
O1249     Ni1255   1.932       .  S
O1249      C1270   1.272       .  A
O1250     Ni1273   1.915       .  S
O1250      C1259   1.268       .  A
O1251     Ni1255   1.912       .  S
O1251     Ni1273   1.906       .  S
O1251     Ni1267   1.921       .  S
O1251      H1274   0.964       .  S
C1252      O1269   1.280   1_556  A
C1252      O1261   1.280   1_556  A
C1252      C2394   1.486       .  S
O1253     Ni1272   1.936       .  S
O1253      C1259   1.272       .  A
O1254     Ni1272   1.906       .  S
O1254      C1256   1.268       .  A
Ni1255     O1258   1.927       .  S
Ni1255     O1260   1.918       .  S
C1256      O1266   1.277       .  A
C1256      C5145   1.493       .  S
O1257     Ni1273   1.926       .  S
O1257      C1263   1.279       .  A
O1258      C1263   1.278       .  A
C1259      C2434   1.496       .  S
O1260      C1262   1.271       .  A
O1261     Ni1272   1.928       .  S
C1262      O1268   1.272       .  A
C1262      C2445   1.492       .  S
C1263      C2405   1.489       .  S
H1264      O1265   0.968       .  S
O1265     Ni1273   1.914       .  S
O1265     Ni1267   1.901       .  S
O1265     Ni1272   1.899       .  S
O1266     Ni1267   1.945       .  S
Ni1267     O1271   1.919       .  S
Ni1267     O1269   1.922       .  S
O1268     Ni1273   1.931       .  S
C1270      O1271   1.270       .  A
C1270      C2365   1.481       .  S
O1275     Ni1281   1.927       .  S
O1275      C1296   1.269       .  A
O1276     Ni1299   1.911       .  S
O1276      C1285   1.267       .  A
O1277     Ni1281   1.915       .  S
O1277     Ni1299   1.908       .  S
O1277     Ni1293   1.912       .  S
O1277      H1300   0.967       .  S
C1278      O1295   1.274       .  A
C1278      O1287   1.276       .  A
C1278      C2414   1.481       .  S
O1279     Ni1298   1.937       .  S
O1279      C1285   1.272       .  A
O1280     Ni1298   1.904       .  S
O1280      C1282   1.269       .  A
Ni1281     O1284   1.915       .  S
Ni1281     O1286   1.915       .  S
C1282      O1292   1.272       .  A
C1282      C5205   1.476       .  S
O1283     Ni1299   1.924       .  S
O1283      C1289   1.277       .  A
O1284      C1289   1.274       .  A
C1285      C2325   1.480       .  S
O1286      C1288   1.271       .  A
O1287     Ni1298   1.928       .  S
C1288      O1294   1.269       .  A
C1288      C2354   1.485       .  S
C1289      C2385   1.482       .  S
H1290      O1291   0.966       .  S
O1291     Ni1299   1.917       .  S
O1291     Ni1293   1.915       .  S
O1291     Ni1298   1.914       .  S
O1292     Ni1293   1.925       .  S
Ni1293     O1297   1.916       .  S
Ni1293     O1295   1.914       .  S
O1294     Ni1299   1.919       .  S
C1296      O1297   1.267       .  A
C1296      C2305   1.477       .  S
O1301     Ni1307   1.907       .  S
O1301      C1322   1.265       .  A
O1302     Ni1325   1.908       .  S
O1302      C1311   1.268       .  A
O1303     Ni1307   1.896       .  S
O1303     Ni1325   1.895       .  S
O1303     Ni1319   1.920       .  S
O1303      H1326   0.966       .  S
C1304      O1321   1.281       .  A
C1304      O1313   1.277       .  A
C1304      C2245   1.481       .  S
O1305     Ni1324   1.933       .  S
O1305      C1311   1.272       .  A
O1306     Ni1324   1.905       .  S
O1306      C1308   1.269       .  A
Ni1307     O1310   1.910       .  S
Ni1307     O1312   1.901       .  S
C1308      O1318   1.271       .  A
C1308      C2494   1.482       .  S
O1309     Ni1325   1.928       .  S
O1309      C1315   1.280       .  A
O1310      C1315   1.275       .  A
C1311      C2285   1.477       .  S
O1312      C1314   1.267       .  A
O1313     Ni1324   1.920       .  S
C1314      O1320   1.271       .  A
C1314      C2454   1.477       .  S
C1315      C2265   1.473       .  S
H1316      O1317   0.967       .  S
O1317     Ni1325   1.917       .  S
O1317     Ni1319   1.909       .  S
O1317     Ni1324   1.903       .  S
O1318     Ni1319   1.922       .  S
Ni1319     O1323   1.931       .  S
Ni1319     O1321   1.928       .  S
O1320     Ni1325   1.926       .  S
C1322      O1323   1.272       .  A
C1322      C2225   1.480       .  S
O1327     Ni1333   1.923       .  S
O1327      C1348   1.267       .  A
O1328     Ni1351   1.894       .  S
O1328      C1337   1.262       .  A
O1329     Ni1333   1.918       .  S
O1329     Ni1351   1.905       .  S
O1329     Ni1345   1.909       .  S
O1329      H1352   0.966       .  S
C1330      O1347   1.273       .  A
C1330      O1339   1.273       .  A
C1330      C2274   1.482       .  S
O1331     Ni1350   1.933       .  S
O1331      C1337   1.270       .  A
O1332     Ni1350   1.905       .  S
O1332      C1334   1.268       .  A
Ni1333     O1336   1.922       .  S
Ni1333     O1338   1.898       .  S
C1334      O1344   1.273       .  A
C1334      C2474   1.509       .  S
O1335     Ni1351   1.917       .  S
O1335      C1341   1.272       .  A
O1336      C1341   1.274       .  A
C1337      C2205   1.466       .  S
O1338      C1340   1.265       .  A
O1339     Ni1350   1.917       .  S
C1340      O1346   1.273       .  A
C1340      C2345   1.484       .  S
C1341      C2254   1.492       .  S
H1342      O1343   0.964       .  S
O1343     Ni1351   1.913       .  S
O1343     Ni1345   1.915       .  S
O1343     Ni1350   1.922       .  S
O1344     Ni1345   1.939       .  S
Ni1345     O1349   1.910       .  S
Ni1345     O1347   1.917       .  S
O1346     Ni1351   1.940       .  S
C1348      O1349   1.266       .  A
C1348      C2185   1.469       .  S
O1353     Ni1359   1.922       .  S
O1353      C1374   1.268       .  A
O1354     Ni1377   1.900       .  S
O1354      C1363   1.266       .  A
O1355     Ni1359   1.914       .  S
O1355     Ni1377   1.906       .  S
O1355     Ni1371   1.922       .  S
O1355      H1378   0.968       .  S
C1356      O1373   1.277       .  A
C1356      O1365   1.275       .  A
C1356      C2125   1.487       .  S
O1357     Ni1376   1.935       .  S
O1357      C1363   1.272       .  A
O1358     Ni1376   1.904       .  S
O1358      C1360   1.270       .  A
Ni1359     O1362   1.920       .  S
Ni1359     O1364   1.915       .  S
C1360      O1370   1.280       .  A
C1360      C4405   1.492       .  S
O1361     Ni1377   1.930       .  S
O1361      C1367   1.278       .  A
O1362      C1367   1.276       .  A
C1363      C2425   1.485       .  S
O1364      C1366   1.270       .  A
O1365     Ni1376   1.921       .  S
C1366      O1372   1.271       .  A
C1366      C2165   1.490       .  S
C1367      C2154   1.488       .  S
H1368      O1369   0.966       .  S
O1369     Ni1377   1.921       .  S
O1369     Ni1371   1.915       .  S
O1369     Ni1376   1.907       .  S
O1370     Ni1371   1.948       .  S
Ni1371     O1375   1.929       .  S
Ni1371     O1373   1.922       .  S
O1372     Ni1377   1.931       .  S
C1374      O1375   1.272       .  A
C1374      C2105   1.488       .  S
O1379     Ni1385   1.927       .  S
O1379      C1400   1.268       .  A
O1380     Ni1403   1.916       .  S
O1380      C1389   1.269       .  A
O1381     Ni1385   1.915       .  S
O1381     Ni1403   1.909       .  S
O1381     Ni1397   1.917       .  S
O1381      H1404   0.969       .  S
C1382      O1399   1.276       .  A
C1382      O1391   1.277       .  A
C1382      C2145   1.485       .  S
O1383     Ni1402   1.943       .  S
O1383      C1389   1.275       .  A
O1384     Ni1402   1.915       .  S
O1384      C1386   1.272       .  A
Ni1385     O1388   1.920       .  S
Ni1385     O1390   1.908       .  S
C1386      O1396   1.275       .  A
C1386      C4394   1.490       .  S
O1387     Ni1403   1.930       .  S
O1387      C1393   1.280       .  A
O1388      C1393   1.276       .  A
C1389      C2334   1.496       .  S
O1390      C1392   1.268       .  A
O1391     Ni1402   1.930       .  S
C1392      O1398   1.269       .  A
C1392      C2085   1.479       .  S
C1393      C2134   1.484       .  S
H1394      O1395   0.968       .  S
O1395     Ni1403   1.917       .  S
O1395     Ni1397   1.912       .  S
O1395     Ni1402   1.908       .  S
O1396     Ni1397   1.938       .  S
Ni1397     O1401   1.921       .  S
Ni1397     O1399   1.918       .  S
O1398     Ni1403   1.921       .  S
C1400      O1401   1.269       .  A
C1400      C2065   1.482       .  S
O1405     Ni1411   1.915       .  S
O1405      C1426   1.266       .  A
O1406     Ni1429   1.910       .  S
O1406      C1415   1.270       .  A
O1407     Ni1411   1.902       .  S
O1407     Ni1429   1.900       .  S
O1407     Ni1423   1.922       .  S
O1407      H1430   0.966       .  S
C1408      O1425   1.282       .  A
C1408      O1417   1.277       .  A
C1408      C2025   1.478   1_554  S
O1409     Ni1428   1.923       .  S
O1409      C1415   1.271       .  A
O1410     Ni1428   1.911       .  S
O1410      C1412   1.270       .  A
Ni1411     O1414   1.915       .  S
Ni1411     O1416   1.910       .  S
C1412      O1422   1.275       .  A
C1412      C2865   1.492       .  S
O1413     Ni1429   1.938       .  S
O1413      C1419   1.282       .  A
O1414      C1419   1.276       .  A
C1415      C2294   1.476       .  S
O1416      C1418   1.269       .  A
O1417     Ni1428   1.917       .  S
C1418      O1424   1.273       .  A
C1418      C2174   1.495       .  S
C1419      C2045   1.482       .  S
H1420      O1421   0.966       .  S
O1421     Ni1429   1.922       .  S
O1421     Ni1423   1.898       .  S
O1421     Ni1428   1.896       .  S
O1422     Ni1423   1.936       .  S
Ni1423     O1427   1.919       .  S
Ni1423     O1425   1.934       .  S
O1424     Ni1429   1.937       .  S
C1426      O1427   1.270       .  A
C1426      C2014   1.473       .  S
O1431     Ni1437   1.915       .  S
O1431      C1452   1.267       .  A
O1432     Ni1455   1.896       .  S
O1432      C1441   1.264       .  A
O1433     Ni1437   1.927       .  S
O1433     Ni1455   1.914       .  S
O1433     Ni1449   1.928       .  S
O1433      H1456   0.965       .  S
C1434      O1451   1.274       .  A
C1434      O1443   1.273       .  A
C1434      C2054   1.487       .  S
O1435     Ni1454   1.931       .  S
O1435      C1441   1.270       .  A
O1436     Ni1454   1.908       .  S
O1436      C1438   1.270       .  A
Ni1437     O1440   1.927       .  S
Ni1437     O1442   1.900       .  S
C1438      O1448   1.278       .  A
C1438      C2905   1.491       .  S
O1439     Ni1455   1.913       .  S
O1439      C1445   1.267       .  A
O1440      C1445   1.270       .  A
C1441      C2214   1.469       .  S
O1442      C1444   1.269       .  A
O1443     Ni1454   1.921       .  S
C1444      O1450   1.278       .  A
C1444      C2094   1.481       .  S
C1445      C2034   1.480       .  S
H1446      O1447   0.965       .  S
O1447     Ni1455   1.908       .  S
O1447     Ni1449   1.909       .  S
O1447     Ni1454   1.919       .  S
O1448     Ni1449   1.952       .  S
Ni1449     O1453   1.909       .  S
Ni1449     O1451   1.917       .  S
O1450     Ni1455   1.954       .  S
C1452      O1453   1.268       .  A
C1452      C1985   1.471       .  S
O1457     Ni1463   1.918   1_554  S
O1457      C1478   1.268       .  A
O1458     Ni1481   1.903       .  S
O1458      C1467   1.266       .  A
O1459     Ni1463   1.899       .  S
O1459     Ni1481   1.900       .  S
O1459     Ni1475   1.917   1_556  S
O1459      H1482   0.964       .  S
C1460      O1477   1.280       .  A
C1460      O1469   1.275       .  A
C1460      C1925   1.473       .  S
O1461     Ni1480   1.928       .  S
O1461      C1467   1.270   1_554  A
O1462     Ni1480   1.908       .  S
O1462      C1464   1.269       .  A
Ni1463     O1466   1.921       .  S
Ni1463     O1468   1.903       .  S
C1464      O1474   1.270       .  A
C1464      C4905   1.496       .  S
O1465     Ni1481   1.917       .  S
O1465      C1471   1.277       .  A
O1466      C1471   1.277       .  A
C1467      C1945   1.468       .  S
O1468      C1470   1.268       .  A
O1469     Ni1480   1.911       .  S
C1470      O1476   1.273       .  A
C1470      C1974   1.487       .  S
C1471      C1914   1.473       .  S
H1472      O1473   0.963       .  S
O1473     Ni1481   1.912   1_554  S
O1473     Ni1475   1.904       .  S
O1473     Ni1480   1.904       .  S
O1474     Ni1475   1.928       .  S
Ni1475     O1479   1.917       .  S
Ni1475     O1477   1.929       .  S
O1476     Ni1481   1.935       .  S
C1478      O1479   1.269       .  A
C1478      C2374   1.475       .  S
O1483     Ni1489   1.917       .  S
O1483      C1504   1.267       .  A
O1484     Ni1507   1.900       .  S
O1484      C1493   1.266       .  A
O1485     Ni1489   1.902       .  S
O1485     Ni1507   1.899       .  S
O1485     Ni1501   1.920       .  S
O1485      H1508   0.965       .  S
C1486      O1503   1.282       .  A
C1486      O1495   1.278       .  A
C1486      C1905   1.484       .  S
O1487     Ni1506   1.935       .  S
O1487      C1493   1.274       .  A
O1488     Ni1506   1.907       .  S
O1488      C1490   1.269       .  A
Ni1489     O1492   1.915       .  S
Ni1489     O1494   1.903       .  S
C1490      O1500   1.270       .  A
C1490      C4874   1.508       .  S
O1491     Ni1507   1.918       .  S
O1491      C1497   1.276       .  A
O1492      C1497   1.275       .  A
C1493      C1865   1.477       .  S
O1494      C1496   1.268       .  A
O1495     Ni1506   1.920       .  S
C1496      O1502   1.269       .  A
C1496      C1885   1.471       .  S
C1497      C1934   1.480       .  S
H1498      O1499   0.968       .  S
O1499     Ni1507   1.911       .  S
O1499     Ni1501   1.899       .  S
O1499     Ni1506   1.896       .  S
O1500     Ni1501   1.925       .  S
Ni1501     O1505   1.916       .  S
Ni1501     O1503   1.934       .  S
O1502     Ni1507   1.917       .  S
C1504      O1505   1.269       .  A
C1504      C2314   1.471       .  S
O1509     Ni1515   1.918       .  S
O1509      C1530   1.264       .  A
O1510     Ni1533   1.920       .  S
O1510      C1519   1.272       .  A
O1511     Ni1515   1.912       .  S
O1511     Ni1533   1.910       .  S
O1511     Ni1527   1.927       .  S
O1511      H1534   0.969       .  S
C1512      O1529   1.281       .  A
C1512      O1521   1.279       .  A
C1512      C1834   1.485       .  S
O1513     Ni1532   1.930       .  S
O1513      C1519   1.273       .  A
O1514     Ni1532   1.912       .  S
O1514      C1516   1.270       .  A
Ni1515     O1518   1.919       .  S
Ni1515     O1520   1.904       .  S
C1516      O1526   1.277       .  A
C1516      C2665   1.497       .  S
O1517     Ni1533   1.933       .  S
O1517      C1523   1.281       .  A
O1518      C1523   1.276       .  A
C1519      C1845   1.492       .  S
O1520      C1522   1.266       .  A
O1521     Ni1532   1.923       .  S
C1522      O1528   1.270       .  A
C1522      C1894   1.474       .  S
C1523      C1814   1.487       .  S
H1524      O1525   0.966       .  S
O1525     Ni1533   1.913       .  S
O1525     Ni1527   1.898       .  S
O1525     Ni1532   1.893       .  S
O1526     Ni1527   1.945       .  S
Ni1527     O1531   1.924       .  S
Ni1527     O1529   1.921       .  S
O1528     Ni1533   1.924       .  S
C1530      O1531   1.269       .  A
C1530      C2234   1.476       .  S
O1535     Ni1541   1.908       .  S
O1535      C1556   1.267       .  A
O1536     Ni1559   1.906       .  S
O1536      C1545   1.267       .  A
O1537     Ni1541   1.920       .  S
O1537     Ni1559   1.912       .  S
O1537     Ni1553   1.935       .  S
O1537      H1560   0.965       .  S
C1538      O1555   1.278       .  A
C1538      O1547   1.277       .  A
C1538      C1805   1.491       .  S
O1539     Ni1558   1.936       .  S
O1539      C1545   1.272       .  A
O1540     Ni1558   1.904       .  S
O1540      C1542   1.269       .  A
Ni1541     O1544   1.929       .  S
Ni1541     O1546   1.904       .  S
C1542      O1552   1.274       .  A
C1542      C2634   1.485       .  S
O1543     Ni1559   1.917       .  S
O1543      C1549   1.268       .  A
O1544      C1549   1.269       .  A
C1545      C1785   1.480       .  S
O1546      C1548   1.269       .  A
O1547     Ni1558   1.927       .  S
C1548      O1554   1.279       .  A
C1548      C1965   1.493       .  S
C1549      C1825   1.481   1_556  S
H1550      O1551   0.969       .  S
O1551     Ni1559   1.912       .  S
O1551     Ni1553   1.905       .  S
O1551     Ni1558   1.911       .  S
O1552     Ni1553   1.930       .  S
Ni1553     O1557   1.913       .  S
Ni1553     O1555   1.927       .  S
O1554     Ni1559   1.957       .  S
C1556      O1557   1.270       .  A
C1556      C2194   1.472       .  S
O1561     Ni1567   1.933       .  S
O1561      C1582   1.273       .  A
O1562     Ni1585   1.908       .  S
O1562      C1571   1.266       .  A
O1563     Ni1567   1.905       .  S
O1563     Ni1585   1.905   1_545  S
O1563     Ni1579   1.919       .  S
O1563      H1586   0.966       .  S
C1564      O1581   1.281   1_565  A
C1564      O1573   1.276       .  A
C1564      C1754   1.484       .  S
O1565     Ni1584   1.919       .  S
O1565      C1571   1.269       .  A
O1566     Ni1584   1.913       .  S
O1566      C1568   1.270       .  A
Ni1567     O1570   1.923       .  S
Ni1567     O1572   1.914       .  S
C1568      O1578   1.271   1_565  A
C1568      C4625   1.484   1_565  S
O1569     Ni1585   1.923       .  S
O1569      C1575   1.277   1_565  A
O1570      C1575   1.277       .  A
C1571      C1874   1.476       .  S
O1572      C1574   1.271       .  A
O1573     Ni1584   1.914       .  S
C1574      O1580   1.270   1_545  A
C1574      C1774   1.488       .  S
C1575      C1734   1.483       .  S
H1576      O1577   0.966       .  S
O1577     Ni1585   1.914       .  S
O1577     Ni1579   1.897   1_565  S
O1577     Ni1584   1.902       .  S
O1578     Ni1579   1.924       .  S
Ni1579     O1583   1.914       .  S
Ni1579     O1581   1.929       .  S
O1580     Ni1585   1.923       .  S
C1582      O1583   1.269       .  A
C1582      C2114   1.486       .  S
O1587     Ni1593   1.915       .  S
O1587      C1608   1.266       .  A
O1588     Ni1611   1.908       .  S
O1588      C1597   1.266       .  A
O1589     Ni1593   1.911       .  S
O1589     Ni1611   1.904   1_545  S
O1589     Ni1605   1.920       .  S
O1589      H1612   0.964       .  S
C1590      O1607   1.279       .  A
C1590      O1599   1.275   1_545  A
C1590      C1725   1.483       .  S
O1591     Ni1610   1.925       .  S
O1591      C1597   1.269       .  A
O1592     Ni1610   1.897       .  S
O1592      C1594   1.267       .  A
Ni1593     O1596   1.923       .  S
Ni1593     O1598   1.907       .  S
C1594      O1604   1.276   1_565  A
C1594      C4594   1.485       .  S
O1595     Ni1611   1.919       .  S
O1595      C1601   1.277   1_565  A
O1596      C1601   1.276       .  A
C1597      C1954   1.477       .  S
O1598      C1600   1.267       .  A
O1599     Ni1610   1.915       .  S
C1600      O1606   1.270   1_545  A
C1600      C1705   1.490       .  S
C1601      C1745   1.478   1_556  S
H1602      O1603   0.961       .  S
O1603     Ni1611   1.918       .  S
O1603     Ni1605   1.911   1_565  S
O1603     Ni1610   1.903       .  S
O1604     Ni1605   1.934       .  S
Ni1605     O1609   1.927       .  S
Ni1605     O1607   1.924       .  S
O1606     Ni1611   1.929       .  S
C1608      O1609   1.271       .  A
C1608      C2074   1.481       .  S
O1613     Ni1619   1.920   1_554  S
O1613      C1634   1.269       .  A
O1614     Ni1637   1.900       .  S
O1614      C1623   1.263       .  A
O1615     Ni1619   1.924   1_554  S
O1615     Ni1637   1.914   1_544  S
O1615     Ni1631   1.921       .  S
O1615      H1638   0.969       .  S
C1616      O1633   1.272   1_565  A
C1616      O1625   1.275       .  A
C1616      C1694   1.473   1_565  S
O1617     Ni1636   1.936       .  S
O1617      C1623   1.271   1_554  A
O1618     Ni1636   1.914       .  S
O1618      C1620   1.269       .  A
Ni1619     O1622   1.931       .  S
Ni1619     O1624   1.906       .  S
C1620      O1630   1.274   1_565  A
C1620      C3305   1.509       .  S
O1621     Ni1637   1.913       .  S
O1621      C1627   1.268   1_565  A
O1622      C1627   1.271       .  A
C1623      C1794   1.472       .  S
O1624      C1626   1.268       .  A
O1625     Ni1636   1.931       .  S
C1626      O1632   1.277   1_545  A
C1626      C1714   1.492       .  S
C1627      C1674   1.489       .  S
H1628      O1629   0.961       .  S
O1629     Ni1637   1.910   1_554  S
O1629     Ni1631   1.917   1_565  S
O1629     Ni1636   1.923       .  S
O1630     Ni1631   1.943       .  S
Ni1631     O1635   1.913       .  S
Ni1631     O1633   1.907       .  S
O1632     Ni1637   1.958       .  S
C1634      O1635   1.268       .  A
C1634      C2005   1.477       .  S
O1639     Ni1645   1.908       .  S
O1639      C1660   1.263       .  A
O1640     Ni1663   1.910       .  S
O1640      C1649   1.270       .  A
O1641     Ni1645   1.913       .  S
O1641     Ni1663   1.906   1_545  S
O1641     Ni1657   1.913       .  S
O1641      H1664   0.965       .  S
C1642      O1659   1.269   1_565  A
C1642      O1651   1.277       .  A
C1642      C1665   1.474   1_565  S
O1643     Ni1662   1.938       .  S
O1643      C1649   1.275       .  A
O1644     Ni1662   1.908       .  S
O1644      C1646   1.268       .  A
Ni1645     O1648   1.908       .  S
Ni1645     O1650   1.908       .  S
C1646      O1656   1.278   1_565  A
C1646      C3234   1.501       .  S
O1647     Ni1663   1.933       .  S
O1647      C1653   1.281   1_565  A
O1648      C1653   1.274       .  A
C1649      C1854   1.490       .  S
O1650      C1652   1.267       .  A
O1651     Ni1662   1.943       .  S
C1652      O1658   1.270   1_545  A
C1652      C1765   1.479       .  S
C1653      C1685   1.482       .  S
H1654      O1655   0.964       .  S
O1655     Ni1663   1.927       .  S
O1655     Ni1657   1.922   1_565  S
O1655     Ni1662   1.911       .  S
O1656     Ni1657   1.954       .  S
Ni1657     O1661   1.925       .  S
Ni1657     O1659   1.904       .  S
O1658     Ni1663   1.928       .  S
C1660      O1661   1.267       .  A
C1660      C1994   1.477       .  S
C1665      C1666   1.408       .  A
C1665      C1670   1.408       .  A
C1666      C1667   1.404       .  A
C1666     Br1678   1.921       .  S
C1667      C1668   1.409       .  A
C1667     Br1682   1.931       .  S
C1668      C1671   1.486       .  S
C1668      C1669   1.412       .  A
C1669      C1670   1.409       .  A
C1669     Br1677   1.929       .  S
C1670     Br1681   1.928   1_545  S
C1671      C1672   1.407       .  A
C1671      C1676   1.410   1_545  A
C1672      C1673   1.405       .  A
C1672     Br1683   1.933       .  S
C1673      C1674   1.418       .  A
C1673     Br1679   1.935       .  S
C1674      C1675   1.417   1_545  A
C1675      C1676   1.411       .  A
C1675     Br1684   1.931       .  S
C1676     Br1680   1.932       .  S
C1685      C1686   1.411   1_545  A
C1685      C1690   1.419       .  A
C1686      C1687   1.410       .  A
C1686     Br1698   1.930       .  S
C1687      C1688   1.411   1_565  A
C1687     Br1702   1.929       .  S
C1688      C1691   1.484       .  S
C1688      C1689   1.405       .  A
C1689      C1690   1.404       .  A
C1689     Br1697   1.932       .  S
C1690     Br1701   1.935       .  S
C1691      C1692   1.410   1_545  A
C1691      C1696   1.409       .  A
C1692      C1693   1.407       .  A
C1692     Br1703   1.930       .  S
C1693      C1694   1.408   1_565  A
C1693     Br1699   1.929       .  S
C1694      C1695   1.411       .  A
C1695      C1696   1.406       .  A
C1695     Br1704   1.930       .  S
C1696     Br1700   1.930       .  S
C1705      C1706   1.417       .  A
C1705      C1710   1.417   1_545  A
C1706      C1707   1.407       .  A
C1706     Br1718   1.934   1_556  S
C1707      C1708   1.407       .  A
C1707     Br1722   1.931   1_556  S
C1708      C1711   1.490       .  S
C1708      C1709   1.409   1_545  A
C1709      C1710   1.412       .  A
C1709     Br1717   1.929       .  S
C1710     Br1721   1.930       .  S
C1711      C1712   1.410   1_545  A
C1711      C1716   1.406       .  A
C1712      C1713   1.414       .  A
C1712     Br1723   1.929   1_556  S
C1713      C1714   1.415   1_565  A
C1713     Br1719   1.925   1_556  S
C1714      C1715   1.417       .  A
C1715      C1716   1.407       .  A
C1715     Br1724   1.932       .  S
C1716     Br1720   1.933       .  S
C1725      C1726   1.417       .  A
C1725      C1730   1.416   1_545  A
C1726      C1727   1.406       .  A
C1726     Br1738   1.933       .  S
C1727      C1728   1.407       .  A
C1727     Br1742   1.933       .  S
C1728      C1731   1.484       .  S
C1728      C1729   1.408   1_545  A
C1729      C1730   1.408       .  A
C1729     Br1737   1.931       .  S
C1730     Br1741   1.933       .  S
C1731      C1732   1.406       .  A
C1731      C1736   1.410   1_545  A
C1732      C1733   1.405       .  A
C1732     Br1743   1.932       .  S
C1733      C1734   1.417       .  A
C1733     Br1739   1.934       .  S
C1734      C1735   1.412       .  A
C1735      C1736   1.410   1_545  A
C1735     Br1744   1.929   1_545  S
C1736     Br1740   1.931       .  S
C1745      C1746   1.411       .  A
C1745      C1750   1.413   1_545  A
C1746      C1747   1.408       .  A
C1746     Br1758   1.929       .  S
C1747      C1748   1.410       .  A
C1747     Br1762   1.930       .  S
C1748      C1751   1.485   1_545  S
C1748      C1749   1.408   1_545  A
C1749      C1750   1.407       .  A
C1749     Br1757   1.930       .  S
C1750     Br1761   1.931       .  S
C1751      C1752   1.405       .  A
C1751      C1756   1.411   1_565  A
C1752      C1753   1.405       .  A
C1752     Br1763   1.932       .  S
C1753      C1754   1.419       .  A
C1753     Br1759   1.935       .  S
C1754      C1755   1.413   1_565  A
C1755      C1756   1.410       .  A
C1755     Br1764   1.931       .  S
C1756     Br1760   1.929       .  S
C1765      C1766   1.412   1_545  A
C1765      C1770   1.411       .  A
C1766      C1767   1.408       .  A
C1766     Br1778   1.931       .  S
C1767      C1768   1.409   1_565  A
C1767     Br1782   1.930       .  S
C1768      C1771   1.487       .  S
C1768      C1769   1.410       .  A
C1769      C1770   1.409       .  A
C1769     Br1777   1.929       .  S
C1770     Br1781   1.930       .  S
C1771      C1772   1.407   1_545  A
C1771      C1776   1.408       .  A
C1772      C1773   1.410       .  A
C1772     Br1783   1.931       .  S
C1773      C1774   1.420   1_565  A
C1773     Br1779   1.933       .  S
C1774      C1775   1.412       .  A
C1775      C1776   1.408       .  A
C1775     Br1784   1.928       .  S
C1776     Br1780   1.930       .  S
C1785      C1786   1.412       .  A
C1785      C1790   1.413       .  A
C1786      C1787   1.407       .  A
C1786     Br1798   1.930       .  S
C1787      C1788   1.407       .  A
C1787     Br1802   1.930       .  S
C1788      C1791   1.482       .  S
C1788      C1789   1.408       .  A
C1789      C1790   1.408       .  A
C1789     Br1797   1.931   1_556  S
C1790     Br1801   1.926       .  S
C1791      C1792   1.409       .  A
C1791      C1796   1.409       .  A
C1792      C1793   1.406       .  A
C1792     Br1803   1.930       .  S
C1793      C1794   1.409       .  A
C1793     Br1799   1.927   1_556  S
C1794      C1795   1.408       .  A
C1795      C1796   1.407       .  A
C1795     Br1804   1.929       .  S
C1796     Br1800   1.928       .  S
C1805      C1806   1.418       .  A
C1805      C1810   1.415       .  A
C1806      C1807   1.410       .  A
C1806     Br1818   1.932       .  S
C1807      C1808   1.408       .  A
C1807     Br1822   1.932       .  S
C1808      C1811   1.491       .  S
C1808      C1809   1.409       .  A
C1809      C1810   1.411       .  A
C1809     Br1817   1.929       .  S
C1810     Br1821   1.930       .  S
C1811      C1812   1.406       .  A
C1811      C1816   1.411       .  A
C1812      C1813   1.407       .  A
C1812     Br1823   1.932       .  S
C1813      C1814   1.419       .  A
C1813     Br1819   1.933       .  S
C1814      C1815   1.411       .  A
C1815      C1816   1.412       .  A
C1815     Br1824   1.929       .  S
C1816     Br1820   1.927       .  S
C1825      C1826   1.412       .  A
C1825      C1830   1.411       .  A
C1826      C1827   1.403       .  A
C1826     Br1838   1.925       .  S
C1827      C1828   1.407       .  A
C1827     Br1842   1.933       .  S
C1828      C1831   1.486       .  S
C1828      C1829   1.413       .  A
C1829      C1830   1.411       .  A
C1829     Br1837   1.930       .  S
C1830     Br1841   1.928       .  S
C1831      C1832   1.408       .  A
C1831      C1836   1.409       .  A
C1832      C1833   1.407       .  A
C1832     Br1843   1.932       .  S
C1833      C1834   1.417       .  A
C1833     Br1839   1.934       .  S
C1834      C1835   1.417       .  A
C1835      C1836   1.407       .  A
C1835     Br1844   1.934       .  S
C1836     Br1840   1.932       .  S
C1845      C1846   1.414       .  A
C1845      C1850   1.418       .  A
C1846      C1847   1.412       .  A
C1846     Br1858   1.928       .  S
C1847      C1848   1.410       .  A
C1847     Br1862   1.930       .  S
C1848      C1851   1.494       .  S
C1848      C1849   1.408       .  A
C1849      C1850   1.411       .  A
C1849     Br1857   1.929       .  S
C1850     Br1861   1.933       .  S
C1851      C1852   1.409       .  A
C1851      C1856   1.410       .  A
C1852      C1853   1.410       .  A
C1852     Br1863   1.930       .  S
C1853      C1854   1.415       .  A
C1853     Br1859   1.932       .  S
C1854      C1855   1.414       .  A
C1855      C1856   1.412       .  A
C1855     Br1864   1.930       .  S
C1856     Br1860   1.929       .  S
C1865      C1866   1.412       .  A
C1865      C1870   1.413       .  A
C1866      C1867   1.405       .  A
C1866     Br1878   1.931       .  S
C1867      C1868   1.407       .  A
C1867     Br1882   1.931       .  S
C1868      C1871   1.480       .  S
C1868      C1869   1.408       .  A
C1869      C1870   1.407       .  A
C1869     Br1877   1.930       .  S
C1870     Br1881   1.931       .  S
C1871      C1872   1.408       .  A
C1871      C1876   1.406       .  A
C1872      C1873   1.406       .  A
C1872     Br1883   1.930       .  S
C1873      C1874   1.411       .  A
C1873     Br1879   1.929       .  S
C1874      C1875   1.414       .  A
C1875      C1876   1.405       .  A
C1875     Br1884   1.933       .  S
C1876     Br1880   1.931       .  S
C1885      C1886   1.415       .  A
C1885      C1890   1.409       .  A
C1886      C1887   1.404       .  A
C1886     Br1898   1.933       .  S
C1887      C1888   1.406       .  A
C1887     Br1902   1.931       .  S
C1888      C1891   1.476       .  S
C1888      C1889   1.408       .  A
C1889      C1890   1.404       .  A
C1889     Br1897   1.930       .  S
C1890     Br1901   1.931       .  S
C1891      C1892   1.406       .  A
C1891      C1896   1.407       .  A
C1892      C1893   1.405       .  A
C1892     Br1903   1.930       .  S
C1893      C1894   1.413       .  A
C1893     Br1899   1.931       .  S
C1894      C1895   1.411       .  A
C1895      C1896   1.404       .  A
C1895     Br1904   1.928       .  S
C1896     Br1900   1.932       .  S
C1905      C1906   1.410       .  A
C1905      C1910   1.416       .  A
C1906      C1907   1.412       .  A
C1906     Br1918   1.927       .  S
C1907      C1908   1.412       .  A
C1907     Br1922   1.929       .  S
C1908      C1911   1.486       .  S
C1908      C1909   1.406       .  A
C1909      C1910   1.404       .  A
C1909     Br1917   1.934       .  S
C1910     Br1921   1.928       .  S
C1911      C1912   1.411       .  A
C1911      C1916   1.411       .  A
C1912      C1913   1.407       .  A
C1912     Br1923   1.930       .  S
C1913      C1914   1.411       .  A
C1913     Br1919   1.932       .  S
C1914      C1915   1.408       .  A
C1915      C1916   1.406       .  A
C1915     Br1924   1.930       .  S
C1916     Br1920   1.930       .  S
C1925      C1926   1.410       .  A
C1925      C1930   1.410       .  A
C1926      C1927   1.406       .  A
C1926     Br1938   1.930       .  S
C1927      C1928   1.408       .  A
C1927     Br1942   1.929       .  S
C1928      C1931   1.477       .  S
C1928      C1929   1.407       .  A
C1929      C1930   1.403       .  A
C1929     Br1937   1.933       .  S
C1930     Br1941   1.922       .  S
C1931      C1932   1.410       .  A
C1931      C1936   1.403       .  A
C1932      C1933   1.408       .  A
C1932     Br1943   1.930       .  S
C1933      C1934   1.413       .  A
C1933     Br1939   1.930       .  S
C1934      C1935   1.418       .  A
C1935      C1936   1.401       .  A
C1935     Br1944   1.935       .  S
C1936     Br1940   1.934       .  S
C1945      C1946   1.408       .  A
C1945      C1950   1.408       .  A
C1946      C1947   1.404       .  A
C1946     Br1958   1.930   1_556  S
C1947      C1948   1.408       .  A
C1947     Br1962   1.929       .  S
C1948      C1951   1.480       .  S
C1948      C1949   1.410       .  A
C1949      C1950   1.407       .  A
C1949     Br1957   1.929       .  S
C1950     Br1961   1.929       .  S
C1951      C1952   1.407       .  A
C1951      C1956   1.408       .  A
C1952      C1953   1.406       .  A
C1952     Br1963   1.931       .  S
C1953      C1954   1.413       .  A
C1953     Br1959   1.932       .  S
C1954      C1955   1.412       .  A
C1955      C1956   1.407       .  A
C1955     Br1964   1.928       .  S
C1956     Br1960   1.930   1_556  S
C1965      C1966   1.422       .  A
C1965      C1970   1.418       .  A
C1966      C1967   1.407       .  A
C1966     Br1978   1.937       .  S
C1967      C1968   1.406       .  A
C1967     Br1982   1.934       .  S
C1968      C1971   1.486       .  S
C1968      C1969   1.407       .  A
C1969      C1970   1.411       .  A
C1969     Br1977   1.930       .  S
C1970     Br1981   1.930       .  S
C1971      C1972   1.409       .  A
C1971      C1976   1.406       .  A
C1972      C1973   1.411       .  A
C1972     Br1983   1.930       .  S
C1973      C1974   1.415       .  A
C1973     Br1979   1.929   1_556  S
C1974      C1975   1.418       .  A
C1975      C1976   1.406       .  A
C1975     Br1984   1.935       .  S
C1976     Br1980   1.932       .  S
C1985      C1986   1.408       .  A
C1985      C1990   1.410       .  A
C1986      C1987   1.406       .  A
C1986     Br1998   1.930       .  S
C1987      C1988   1.409       .  A
C1987     Br2002   1.929       .  S
C1988      C1991   1.484       .  S
C1988      C1989   1.409       .  A
C1989      C1990   1.407       .  A
C1989     Br1997   1.929       .  S
C1990     Br2001   1.929       .  S
C1991      C1992   1.412       .  A
C1991      C1996   1.406       .  A
C1992      C1993   1.410       .  A
C1992     Br2003   1.929       .  S
C1993      C1994   1.408       .  A
C1993     Br1999   1.929       .  S
C1994      C1995   1.413       .  A
C1995      C1996   1.405       .  A
C1995     Br2004   1.931       .  S
C1996     Br2000   1.930       .  S
C2005      C2006   1.412       .  A
C2005      C2010   1.410       .  A
C2006      C2007   1.405       .  A
C2006     Br2018   1.932   1_554  S
C2007      C2008   1.407       .  A
C2007     Br2022   1.931       .  S
C2008      C2011   1.485       .  S
C2008      C2009   1.412       .  A
C2009      C2010   1.412       .  A
C2009     Br2017   1.928       .  S
C2010     Br2021   1.928       .  S
C2011      C2012   1.411       .  A
C2011      C2016   1.409       .  A
C2012      C2013   1.407       .  A
C2012     Br2023   1.930       .  S
C2013      C2014   1.407       .  A
C2013     Br2019   1.929       .  S
C2014      C2015   1.411       .  A
C2015      C2016   1.409       .  A
C2015     Br2024   1.931       .  S
C2016     Br2020   1.928       .  S
C2025      C2026   1.410       .  A
C2025      C2030   1.416       .  A
C2026      C2027   1.410       .  A
C2026     Br2038   1.928       .  S
C2027      C2028   1.410       .  A
C2027     Br2042   1.929       .  S
C2028      C2031   1.481       .  S
C2028      C2029   1.405       .  A
C2029      C2030   1.403       .  A
C2029     Br2037   1.933       .  S
C2030     Br2041   1.931       .  S
C2031      C2032   1.408       .  A
C2031      C2036   1.406       .  A
C2032      C2033   1.407       .  A
C2032     Br2043   1.932       .  S
C2033      C2034   1.414       .  A
C2033     Br2039   1.928       .  S
C2034      C2035   1.415       .  A
C2035      C2036   1.405       .  A
C2035     Br2044   1.933       .  S
C2036     Br2040   1.930       .  S
C2045      C2046   1.415       .  A
C2045      C2050   1.411       .  A
C2046      C2047   1.404       .  A
C2046     Br2058   1.932       .  S
C2047      C2048   1.405       .  A
C2047     Br2062   1.931       .  S
C2048      C2051   1.486       .  S
C2048      C2049   1.412       .  A
C2049      C2050   1.413       .  A
C2049     Br2057   1.930       .  S
C2050     Br2061   1.927       .  S
C2051      C2052   1.407       .  A
C2051      C2056   1.407       .  A
C2052      C2053   1.408       .  A
C2052     Br2063   1.930       .  S
C2053      C2054   1.417       .  A
C2053     Br2059   1.932       .  S
C2054      C2055   1.417       .  A
C2055      C2056   1.408       .  A
C2055     Br2064   1.933       .  S
C2056     Br2060   1.931       .  S
C2065      C2066   1.411       .  A
C2065      C2070   1.412       .  A
C2066      C2067   1.409       .  A
C2066     Br2078   1.929       .  S
C2067      C2068   1.408       .  A
C2067     Br2082   1.929       .  S
C2068      C2071   1.488       .  S
C2068      C2069   1.410       .  A
C2069      C2070   1.410       .  A
C2069     Br2077   1.930       .  S
C2070     Br2081   1.927       .  S
C2071      C2072   1.411       .  A
C2071      C2076   1.407       .  A
C2072      C2073   1.410       .  A
C2072     Br2083   1.928       .  S
C2073      C2074   1.410       .  A
C2073     Br2079   1.927       .  S
C2074      C2075   1.415       .  A
C2075      C2076   1.407       .  A
C2075     Br2084   1.933       .  S
C2076     Br2080   1.930       .  S
C2085      C2086   1.410       .  A
C2085      C2090   1.415       .  A
C2086      C2087   1.404       .  A
C2086     Br2098   1.928       .  S
C2087      C2088   1.410       .  A
C2087     Br2102   1.933       .  S
C2088      C2091   1.483       .  S
C2088      C2089   1.407       .  A
C2089      C2090   1.408       .  A
C2089     Br2097   1.930       .  S
C2090     Br2101   1.932       .  S
C2091      C2092   1.410       .  A
C2091      C2096   1.405       .  A
C2092      C2093   1.409       .  A
C2092     Br2103   1.928       .  S
C2093      C2094   1.411       .  A
C2093     Br2099   1.929       .  S
C2094      C2095   1.412       .  A
C2095      C2096   1.403       .  A
C2095     Br2104   1.917       .  S
C2096     Br2100   1.933       .  S
C2105      C2106   1.412       .  A
C2105      C2110   1.416       .  A
C2106      C2107   1.412       .  A
C2106     Br2118   1.926       .  S
C2107      C2108   1.411       .  A
C2107     Br2122   1.929       .  S
C2108      C2111   1.491       .  S
C2108      C2109   1.407       .  A
C2109      C2110   1.409       .  A
C2109     Br2117   1.930       .  S
C2110     Br2121   1.932       .  S
C2111      C2112   1.410       .  A
C2111      C2116   1.409       .  A
C2112      C2113   1.412       .  A
C2112     Br2123   1.928       .  S
C2113      C2114   1.414       .  A
C2113     Br2119   1.931       .  S
C2114      C2115   1.412       .  A
C2115      C2116   1.408       .  A
C2115     Br2124   1.928       .  S
C2116     Br2120   1.930       .  S
C2125      C2126   1.416       .  A
C2125      C2130   1.418       .  A
C2126      C2127   1.407       .  A
C2126     Br2138   1.932       .  S
C2127      C2128   1.407       .  A
C2127     Br2142   1.932       .  S
C2128      C2131   1.487       .  S
C2128      C2129   1.408       .  A
C2129      C2130   1.410       .  A
C2129     Br2137   1.929       .  S
C2130     Br2141   1.932       .  S
C2131      C2132   1.410       .  A
C2131      C2136   1.407       .  A
C2132      C2133   1.411       .  A
C2132     Br2143   1.928       .  S
C2133      C2134   1.412       .  A
C2133     Br2139   1.929       .  S
C2134      C2135   1.416       .  A
C2135      C2136   1.406       .  A
C2135     Br2144   1.933       .  S
C2136     Br2140   1.932       .  S
C2145      C2146   1.416       .  A
C2145      C2150   1.414       .  A
C2146      C2147   1.408       .  A
C2146     Br2158   1.933       .  S
C2147      C2148   1.408   1_556  A
C2147     Br2162   1.931   1_556  S
C2148      C2151   1.488       .  S
C2148      C2149   1.409   1_554  A
C2149      C2150   1.410       .  A
C2149     Br2157   1.929   1_556  S
C2150     Br2161   1.930       .  S
C2151      C2152   1.406       .  A
C2151      C2156   1.411       .  A
C2152      C2153   1.405       .  A
C2152     Br2163   1.934       .  S
C2153      C2154   1.418       .  A
C2153     Br2159   1.935       .  S
C2154      C2155   1.414       .  A
C2155      C2156   1.414       .  A
C2155     Br2164   1.929       .  S
C2156     Br2160   1.928       .  S
C2165      C2166   1.413       .  A
C2165      C2170   1.417       .  A
C2166      C2167   1.411       .  A
C2166     Br2178   1.930       .  S
C2167      C2168   1.410       .  A
C2167     Br2182   1.929       .  S
C2168      C2171   1.496       .  S
C2168      C2169   1.410       .  A
C2169      C2170   1.412       .  A
C2169     Br2177   1.930       .  S
C2170     Br2181   1.931       .  S
C2171      C2172   1.410       .  A
C2171      C2176   1.409       .  A
C2172      C2173   1.410       .  A
C2172     Br2183   1.931       .  S
C2173      C2174   1.415       .  A
C2173     Br2179   1.932       .  S
C2174      C2175   1.419       .  A
C2175      C2176   1.414       .  A
C2175     Br2184   1.932       .  S
C2176     Br2180   1.930       .  S
C2185      C2186   1.409       .  A
C2185      C2190   1.407       .  A
C2186      C2187   1.406       .  A
C2186     Br2198   1.930       .  S
C2187      C2188   1.408       .  A
C2187     Br2202   1.929       .  S
C2188      C2191   1.482       .  S
C2188      C2189   1.411       .  A
C2189      C2190   1.407       .  A
C2189     Br2197   1.929       .  S
C2190     Br2201   1.929       .  S
C2191      C2192   1.410       .  A
C2191      C2196   1.407       .  A
C2192      C2193   1.408       .  A
C2192     Br2203   1.928       .  S
C2193      C2194   1.408       .  A
C2193     Br2199   1.929       .  S
C2194      C2195   1.413       .  A
C2195      C2196   1.405       .  A
C2195     Br2204   1.933       .  S
C2196     Br2200   1.931       .  S
C2205      C2206   1.406       .  A
C2205      C2210   1.409       .  A
C2206      C2207   1.403       .  A
C2206     Br2218   1.929       .  S
C2207      C2208   1.409       .  A
C2207     Br2222   1.930       .  S
C2208      C2211   1.480       .  S
C2208      C2209   1.410       .  A
C2209      C2210   1.407       .  A
C2209     Br2217   1.929       .  S
C2210     Br2221   1.930       .  S
C2211      C2212   1.410       .  A
C2211      C2216   1.408       .  A
C2212      C2213   1.406       .  A
C2212     Br2223   1.929       .  S
C2213      C2214   1.408       .  A
C2213     Br2219   1.930       .  S
C2214      C2215   1.409       .  A
C2215      C2216   1.405       .  A
C2215     Br2224   1.930       .  S
C2216     Br2220   1.931       .  S
C2225      C2226   1.414       .  A
C2225      C2230   1.409       .  A
C2226      C2227   1.406       .  A
C2226     Br2238   1.931       .  S
C2227      C2228   1.406       .  A
C2227     Br2242   1.932       .  S
C2228      C2231   1.487       .  S
C2228      C2229   1.412       .  A
C2229      C2230   1.412       .  A
C2229     Br2237   1.927       .  S
C2230     Br2241   1.928       .  S
C2231      C2232   1.410       .  A
C2231      C2236   1.409       .  A
C2232      C2233   1.408       .  A
C2232     Br2243   1.929       .  S
C2233      C2234   1.409       .  A
C2233     Br2239   1.927       .  S
C2234      C2235   1.410       .  A
C2235      C2236   1.408       .  A
C2235     Br2244   1.928       .  S
C2236     Br2240   1.928       .  S
C2245      C2246   1.418       .  A
C2245      C2250   1.410       .  A
C2246      C2247   1.406       .  A
C2246     Br2258   1.932       .  S
C2247      C2248   1.406       .  A
C2247     Br2262   1.933       .  S
C2248      C2251   1.484       .  S
C2248      C2249   1.410       .  A
C2249      C2250   1.409       .  A
C2249     Br2257   1.929       .  S
C2250     Br2261   1.929       .  S
C2251      C2252   1.404       .  A
C2251      C2256   1.408       .  A
C2252      C2253   1.405       .  A
C2252     Br2263   1.932       .  S
C2253      C2254   1.421       .  A
C2253     Br2259   1.936       .  S
C2254      C2255   1.420       .  A
C2255      C2256   1.410       .  A
C2255     Br2264   1.932       .  S
C2256     Br2260   1.931       .  S
C2265      C2266   1.409       .  A
C2265      C2270   1.416       .  A
C2266      C2267   1.407       .  A
C2266     Br2278   1.929       .  S
C2267      C2268   1.409       .  A
C2267     Br2282   1.929       .  S
C2268      C2271   1.478       .  S
C2268      C2269   1.405       .  A
C2269      C2270   1.402       .  A
C2269     Br2277   1.933       .  S
C2270     Br2281   1.934       .  S
C2271      C2272   1.405   1_554  A
C2271      C2276   1.407   1_554  A
C2272      C2273   1.403       .  A
C2272     Br2283   1.932   1_556  S
C2273      C2274   1.416       .  A
C2273     Br2279   1.935       .  S
C2274      C2275   1.416       .  A
C2275      C2276   1.408       .  A
C2275     Br2284   1.926       .  S
C2276     Br2280   1.932   1_556  S
C2285      C2286   1.411       .  A
C2285      C2290   1.411       .  A
C2286      C2287   1.407       .  A
C2286     Br2298   1.929       .  S
C2287      C2288   1.408       .  A
C2287     Br2302   1.930       .  S
C2288      C2291   1.482       .  S
C2288      C2289   1.408       .  A
C2289      C2290   1.406       .  A
C2289     Br2297   1.930       .  S
C2290     Br2301   1.927       .  S
C2291      C2292   1.407       .  A
C2291      C2296   1.409       .  A
C2292      C2293   1.406       .  A
C2292     Br2303   1.931       .  S
C2293      C2294   1.414       .  A
C2293     Br2299   1.932       .  S
C2294      C2295   1.410       .  A
C2295      C2296   1.407       .  A
C2295     Br2304   1.930       .  S
C2296     Br2300   1.929       .  S
C2305      C2306   1.407       .  A
C2305      C2310   1.410       .  A
C2306      C2307   1.409       .  A
C2306     Br2318   1.928       .  S
C2307      C2308   1.413       .  A
C2307     Br2322   1.930       .  S
C2308      C2311   1.489       .  S
C2308      C2309   1.410       .  A
C2309      C2310   1.409       .  A
C2309     Br2317   1.930       .  S
C2310     Br2321   1.929       .  S
C2311      C2312   1.411       .  A
C2311      C2316   1.412       .  A
C2312      C2313   1.409       .  A
C2312     Br2323   1.929       .  S
C2313      C2314   1.409       .  A
C2313     Br2319   1.930       .  S
C2314      C2315   1.405       .  A
C2315      C2316   1.406       .  A
C2315     Br2324   1.928       .  S
C2316     Br2320   1.929       .  S
C2325      C2326   1.409       .  A
C2325      C2330   1.410       .  A
C2326      C2327   1.410       .  A
C2326     Br2338   1.929       .  S
C2327      C2328   1.411       .  A
C2327     Br2342   1.929       .  S
C2328      C2331   1.493       .  S
C2328      C2329   1.411       .  A
C2329      C2330   1.411       .  A
C2329     Br2337   1.928       .  S
C2330     Br2341   1.929       .  S
C2331      C2332   1.410       .  A
C2331      C2336   1.407       .  A
C2332      C2333   1.414       .  A
C2332     Br2343   1.930       .  S
C2333      C2334   1.417       .  A
C2333     Br2339   1.928       .  S
C2334      C2335   1.418       .  A
C2335      C2336   1.411       .  A
C2335     Br2344   1.931       .  S
C2336     Br2340   1.931       .  S
C2345      C2346   1.414       .  A
C2345      C2350   1.412       .  A
C2346      C2347   1.408       .  A
C2346     Br2358   1.922       .  S
C2347      C2348   1.407       .  A
C2347     Br2362   1.931       .  S
C2348      C2351   1.485       .  S
C2348      C2349   1.408       .  A
C2349      C2350   1.408       .  A
C2349     Br2357   1.929       .  S
C2350     Br2361   1.930       .  S
C2351      C2352   1.405       .  A
C2351      C2356   1.409       .  A
C2352      C2353   1.407       .  A
C2352     Br2363   1.932       .  S
C2353      C2354   1.419       .  A
C2353     Br2359   1.934       .  S
C2354      C2355   1.414       .  A
C2355      C2356   1.409       .  A
C2355     Br2364   1.931       .  S
C2356     Br2360   1.930       .  S
C2365      C2366   1.411       .  A
C2365      C2370   1.410       .  A
C2366      C2367   1.410       .  A
C2366     Br2378   1.929       .  S
C2367      C2368   1.409       .  A
C2367     Br2382   1.928       .  S
C2368      C2371   1.489       .  S
C2368      C2369   1.411       .  A
C2369      C2370   1.409       .  A
C2369     Br2377   1.930       .  S
C2370     Br2381   1.928       .  S
C2371      C2372   1.412       .  A
C2371      C2376   1.409       .  A
C2372      C2373   1.410       .  A
C2372     Br2383   1.928       .  S
C2373      C2374   1.407       .  A
C2373     Br2379   1.928       .  S
C2374      C2375   1.411       .  A
C2375      C2376   1.407       .  A
C2375     Br2384   1.932   1_554  S
C2376     Br2380   1.928   1_554  S
C2385      C2386   1.417       .  A
C2385      C2390   1.413       .  A
C2386      C2387   1.402       .  A
C2386     Br2398   1.935       .  S
C2387      C2388   1.405       .  A
C2387     Br2402   1.934       .  S
C2388      C2391   1.484       .  S
C2388      C2389   1.411       .  A
C2389      C2390   1.412       .  A
C2389     Br2397   1.928       .  S
C2390     Br2401   1.929       .  S
C2391      C2392   1.407       .  A
C2391      C2396   1.409       .  A
C2392      C2393   1.408       .  A
C2392     Br2403   1.932       .  S
C2393      C2394   1.419       .  A
C2393     Br2399   1.934       .  S
C2394      C2395   1.414       .  A
C2395      C2396   1.408       .  A
C2395     Br2404   1.931       .  S
C2396     Br2400   1.931       .  S
C2405      C2406   1.419       .  A
C2405      C2410   1.415       .  A
C2406      C2407   1.407       .  A
C2406     Br2418   1.934       .  S
C2407      C2408   1.406       .  A
C2407     Br2422   1.932       .  S
C2408      C2411   1.488       .  S
C2408      C2409   1.410       .  A
C2409      C2410   1.411       .  A
C2409     Br2417   1.930       .  S
C2410     Br2421   1.930       .  S
C2411      C2412   1.410       .  A
C2411      C2416   1.409       .  A
C2412      C2413   1.409       .  A
C2412     Br2423   1.930       .  S
C2413      C2414   1.415       .  A
C2413     Br2419   1.933       .  S
C2414      C2415   1.411       .  A
C2415      C2416   1.407       .  A
C2415     Br2424   1.930       .  S
C2416     Br2420   1.930       .  S
C2425      C2426   1.416       .  A
C2425      C2430   1.416       .  A
C2426      C2427   1.408       .  A
C2426     Br2438   1.932       .  S
C2427      C2428   1.407       .  A
C2427     Br2442   1.932       .  S
C2428      C2431   1.483       .  S
C2428      C2429   1.406       .  A
C2429      C2430   1.407       .  A
C2429     Br2437   1.931       .  S
C2430     Br2441   1.931       .  S
C2431      C2432   1.404       .  A
C2431      C2436   1.405       .  A
C2432      C2433   1.409       .  A
C2432     Br2443   1.934       .  S
C2433      C2434   1.422       .  A
C2433     Br2439   1.924       .  S
C2434      C2435   1.421       .  A
C2435      C2436   1.408       .  A
C2435     Br2444   1.935       .  S
C2436     Br2440   1.933       .  S
C2445      C2446   1.414       .  A
C2445      C2450   1.419       .  A
C2446      C2447   1.412       .  A
C2446     Br2458   1.929       .  S
C2447      C2448   1.409       .  A
C2447     Br2462   1.929       .  S
C2448      C2451   1.486       .  S
C2448      C2449   1.404       .  A
C2449      C2450   1.407       .  A
C2449     Br2457   1.935       .  S
C2450     Br2461   1.922       .  S
C2451      C2452   1.410       .  A
C2451      C2456   1.408       .  A
C2452      C2453   1.407       .  A
C2452     Br2463   1.929       .  S
C2453      C2454   1.410       .  A
C2453     Br2459   1.931       .  S
C2454      C2455   1.414       .  A
C2455      C2456   1.408       .  A
C2455     Br2464   1.933       .  S
C2456     Br2460   1.930       .  S
C2465      C2466   1.423       .  A
C2465      C2470   1.414       .  A
C2466      C2467   1.407       .  A
C2466     Br2478   1.936       .  S
C2467      C2468   1.406       .  A
C2467     Br2482   1.935       .  S
C2468      C2471   1.489       .  S
C2468      C2469   1.410       .  A
C2469      C2470   1.412       .  A
C2469     Br2477   1.929       .  S
C2470     Br2481   1.930       .  S
C2471      C2472   1.405       .  A
C2471      C2476   1.405       .  A
C2472      C2473   1.412       .  A
C2472     Br2483   1.933       .  S
C2473      C2474   1.426       .  A
C2473     Br2479   1.935       .  S
C2474      C2475   1.427       .  A
C2475      C2476   1.410       .  A
C2475     Br2484   1.931       .  S
C2476     Br2480   1.935       .  S
C2485      C2486   1.414       .  A
C2485      C2490   1.420       .  A
C2486      C2487   1.411       .  A
C2486     Br2498   1.929       .  S
C2487      C2488   1.409       .  A
C2487     Br2502   1.929       .  S
C2488      C2491   1.481       .  S
C2488      C2489   1.403       .  A
C2489      C2490   1.403       .  A
C2489     Br2497   1.935       .  S
C2490     Br2501   1.934       .  S
C2491      C2492   1.407       .  A
C2491      C2496   1.406       .  A
C2492      C2493   1.405       .  A
C2492     Br2503   1.933       .  S
C2493      C2494   1.418       .  A
C2493     Br2499   1.935       .  S
C2494      C2495   1.414       .  A
C2495      C2496   1.407       .  A
C2495     Br2504   1.927       .  S
C2496     Br2500   1.929       .  S
C2505      C2506   1.421       .  A
C2505      C2510   1.412       .  A
C2506      C2507   1.403       .  A
C2506     Br2518   1.937       .  S
C2507      C2508   1.405       .  A
C2507     Br2522   1.935       .  S
C2508      C2511   1.480       .  S
C2508      C2509   1.409       .  A
C2509      C2510   1.409       .  A
C2509     Br2517   1.929       .  S
C2510     Br2521   1.930       .  S
C2511      C2512   1.408       .  A
C2511      C2516   1.408       .  A
C2512      C2513   1.404       .  A
C2512     Br2523   1.931       .  S
C2513      C2514   1.411       .  A
C2513     Br2519   1.931       .  S
C2514      C2515   1.416       .  A
C2515      C2516   1.406       .  A
C2515     Br2524   1.934       .  S
C2516     Br2520   1.932       .  S
C2525      C2526   1.417       .  A
C2525      C2530   1.418       .  A
C2526      C2527   1.408       .  A
C2526     Br2538   1.932       .  S
C2527      C2528   1.408       .  A
C2527     Br2542   1.932       .  S
C2528      C2531   1.488       .  S
C2528      C2529   1.409       .  A
C2529      C2530   1.409       .  A
C2529     Br2537   1.932       .  S
C2530     Br2541   1.932       .  S
C2531      C2532   1.405       .  A
C2531      C2536   1.412       .  A
C2532      C2533   1.404       .  A
C2532     Br2543   1.933       .  S
C2533      C2534   1.415       .  A
C2533     Br2539   1.923       .  S
C2534      C2535   1.411       .  A
C2535      C2536   1.412       .  A
C2535     Br2544   1.927       .  S
C2536     Br2540   1.929       .  S
C2545      C2546   1.417       .  A
C2545      C2550   1.412       .  A
C2546      C2547   1.411       .  A
C2546     Br2558   1.933       .  S
C2547      C2548   1.409       .  A
C2547     Br2562   1.929       .  S
C2548      C2551   1.493       .  S
C2548      C2549   1.411       .  A
C2549      C2550   1.410       .  A
C2549     Br2557   1.930       .  S
C2550     Br2561   1.930       .  S
C2551      C2552   1.410       .  A
C2551      C2556   1.409       .  A
C2552      C2553   1.411       .  A
C2552     Br2563   1.928       .  S
C2553      C2554   1.412       .  A
C2553     Br2559   1.930       .  S
C2554      C2555   1.417       .  A
C2555      C2556   1.412       .  A
C2555     Br2564   1.932       .  S
C2556     Br2560   1.931       .  S
C2565      C2566   1.409       .  A
C2565      C2570   1.413       .  A
C2566      C2567   1.410       .  A
C2566     Br2578   1.929       .  S
C2567      C2568   1.411       .  A
C2567     Br2582   1.930       .  S
C2568      C2571   1.480       .  S
C2568      C2569   1.405       .  A
C2569      C2570   1.402       .  A
C2569     Br2577   1.932       .  S
C2570     Br2581   1.929       .  S
C2571      C2572   1.407       .  A
C2571      C2576   1.408       .  A
C2572      C2573   1.404       .  A
C2572     Br2583   1.932       .  S
C2573      C2574   1.416       .  A
C2573     Br2579   1.934       .  S
C2574      C2575   1.415       .  A
C2575      C2576   1.408       .  A
C2575     Br2584   1.932   1_556  S
C2576     Br2580   1.930       .  S
C2585      C2586   1.414       .  A
C2585      C2590   1.420       .  A
C2586      C2587   1.414       .  A
C2586     Br2598   1.928       .  S
C2587      C2588   1.411       .  A
C2587     Br2602   1.930       .  S
C2588      C2591   1.493       .  S
C2588      C2589   1.407       .  A
C2589      C2590   1.409       .  A
C2589     Br2597   1.932       .  S
C2590     Br2601   1.934       .  S
C2591      C2592   1.409       .  A
C2591      C2596   1.410       .  A
C2592      C2593   1.410       .  A
C2592     Br2603   1.930       .  S
C2593      C2594   1.416       .  A
C2593     Br2599   1.933       .  S
C2594      C2595   1.414       .  A
C2595      C2596   1.411       .  A
C2595     Br2604   1.930       .  S
C2596     Br2600   1.930       .  S
C2605      C2606   1.423       .  A
C2605      C2610   1.417       .  A
C2606      C2607   1.406       .  A
C2606     Br2618   1.940       .  S
C2607      C2608   1.405       .  A
C2607     Br2622   1.934       .  S
C2608      C2611   1.488       .  S
C2608      C2609   1.408       .  A
C2609      C2610   1.412       .  A
C2609     Br2617   1.929       .  S
C2610     Br2621   1.931   1_554  S
C2611      C2612   1.408       .  A
C2611      C2616   1.409       .  A
C2612      C2613   1.408       .  A
C2612     Br2623   1.931   1_554  S
C2613      C2614   1.415       .  A
C2613     Br2619   1.932       .  S
C2614      C2615   1.412       .  A
C2615      C2616   1.411       .  A
C2615     Br2624   1.925       .  S
C2616     Br2620   1.929       .  S
C2625      C2626   1.417       .  A
C2625      C2630   1.413       .  A
C2626      C2627   1.405       .  A
C2626     Br2638   1.933       .  S
C2627      C2628   1.406       .  A
C2627     Br2642   1.933       .  S
C2628      C2631   1.483       .  S
C2628      C2629   1.409       .  A
C2629      C2630   1.410       .  A
C2629     Br2637   1.929       .  S
C2630     Br2641   1.929       .  S
C2631      C2632   1.404       .  A
C2631      C2636   1.410       .  A
C2632      C2633   1.406       .  A
C2632     Br2643   1.933       .  S
C2633      C2634   1.421       .  A
C2633     Br2639   1.933       .  S
C2634      C2635   1.413       .  A
C2635      C2636   1.410       .  A
C2635     Br2644   1.930       .  S
C2636     Br2640   1.930       .  S
C2645      C2646   1.415       .  A
C2645      C2650   1.416       .  A
C2646      C2647   1.414       .  A
C2646     Br2658   1.929       .  S
C2647      C2648   1.410       .  A
C2647     Br2662   1.930       .  S
C2648      C2651   1.495       .  S
C2648      C2649   1.409       .  A
C2649      C2650   1.412       .  A
C2649     Br2657   1.930       .  S
C2650     Br2661   1.930       .  S
C2651      C2652   1.411       .  A
C2651      C2656   1.410       .  A
C2652      C2653   1.411       .  A
C2652     Br2663   1.928       .  S
C2653      C2654   1.411       .  A
C2653     Br2659   1.930       .  S
C2654      C2655   1.413       .  A
C2655      C2656   1.411       .  A
C2655     Br2664   1.930       .  S
C2656     Br2660   1.929       .  S
C2665      C2666   1.413       .  A
C2665      C2670   1.420       .  A
C2666      C2667   1.416       .  A
C2666     Br2678   1.925       .  S
C2667      C2668   1.412       .  A
C2667     Br2682   1.927       .  S
C2668      C2671   1.499       .  S
C2668      C2669   1.407       .  A
C2669      C2670   1.410       .  A
C2669     Br2677   1.932       .  S
C2670     Br2681   1.931       .  S
C2671      C2672   1.411       .  A
C2671      C2676   1.407       .  A
C2672      C2673   1.417       .  A
C2672     Br2683   1.929       .  S
C2673      C2674   1.416       .  A
C2673     Br2679   1.926       .  S
C2674      C2675   1.420       .  A
C2675      C2676   1.412       .  A
C2675     Br2684   1.930       .  S
C2676     Br2680   1.932       .  S
C2685      C2686   1.418       .  A
C2685      C2690   1.419       .  A
C2686      C2687   1.411       .  A
C2686     Br2698   1.931       .  S
C2687      C2688   1.408       .  A
C2687     Br2702   1.930       .  S
C2688      C2691   1.490       .  S
C2688      C2689   1.408       .  A
C2689      C2690   1.410       .  A
C2689     Br2697   1.931       .  S
C2690     Br2701   1.934       .  S
C2691      C2692   1.410       .  A
C2691      C2696   1.410       .  A
C2692      C2693   1.411       .  A
C2692     Br2703   1.929       .  S
C2693      C2694   1.413       .  A
C2693     Br2699   1.929       .  S
C2694      C2695   1.410       .  A
C2695      C2696   1.408       .  A
C2695     Br2704   1.931       .  S
C2696     Br2700   1.929       .  S
C2705      C2706   1.420       .  A
C2705      C2710   1.413       .  A
C2706      C2707   1.408       .  A
C2706     Br2718   1.934       .  S
C2707      C2708   1.406       .  A
C2707     Br2722   1.932       .  S
C2708      C2711   1.484       .  S
C2708      C2709   1.408       .  A
C2709      C2710   1.408       .  A
C2709     Br2717   1.930       .  S
C2710     Br2721   1.929       .  S
C2711      C2712   1.406       .  A
C2711      C2716   1.409       .  A
C2712      C2713   1.405       .  A
C2712     Br2723   1.931       .  S
C2713      C2714   1.409       .  A
C2713     Br2719   1.917       .  S
C2714      C2715   1.413       .  A
C2715      C2716   1.410       .  A
C2715     Br2724   1.929       .  S
C2716     Br2720   1.929       .  S
C2725      C2726   1.414   1_554  A
C2725      C2730   1.411       .  A
C2726      C2727   1.410   1_556  A
C2726     Br2738   1.931       .  S
C2727      C2728   1.411       .  A
C2727     Br2742   1.932   1_554  S
C2728      C2731   1.493       .  S
C2728      C2729   1.410       .  A
C2729      C2730   1.409       .  A
C2729     Br2737   1.930       .  S
C2730     Br2741   1.925       .  S
C2731      C2732   1.410       .  A
C2731      C2736   1.410       .  A
C2732      C2733   1.409       .  A
C2732     Br2743   1.931       .  S
C2733      C2734   1.414       .  A
C2733     Br2739   1.930       .  S
C2734      C2735   1.416       .  A
C2735      C2736   1.411       .  A
C2735     Br2744   1.928       .  S
C2736     Br2740   1.932       .  S
C2745      C2746   1.412       .  A
C2745      C2750   1.415       .  A
C2746      C2747   1.409       .  A
C2746     Br2758   1.931       .  S
C2747      C2748   1.410       .  A
C2747     Br2762   1.931       .  S
C2748      C2751   1.490       .  S
C2748      C2749   1.409       .  A
C2749      C2750   1.410       .  A
C2749     Br2757   1.931       .  S
C2750     Br2761   1.931       .  S
C2751      C2752   1.410       .  A
C2751      C2756   1.409       .  A
C2752      C2753   1.410       .  A
C2752     Br2763   1.930       .  S
C2753      C2754   1.413       .  A
C2753     Br2759   1.928       .  S
C2754      C2755   1.414       .  A
C2755      C2756   1.408       .  A
C2755     Br2764   1.932   1_554  S
C2756     Br2760   1.931   1_554  S
C2765      C2766   1.423       .  A
C2765      C2770   1.418       .  A
C2766      C2767   1.409       .  A
C2766     Br2778   1.935       .  S
C2767      C2768   1.406       .  A
C2767     Br2782   1.934       .  S
C2768      C2771   1.494       .  S
C2768      C2769   1.409       .  A
C2769      C2770   1.415       .  A
C2769     Br2777   1.928       .  S
C2770     Br2781   1.928       .  S
C2771      C2772   1.408       .  A
C2771      C2776   1.410       .  A
C2772      C2773   1.410       .  A
C2772     Br2783   1.931       .  S
C2773      C2774   1.418       .  A
C2773     Br2779   1.934       .  S
C2774      C2775   1.414       .  A
C2775      C2776   1.413       .  A
C2775     Br2784   1.927   1_554  S
C2776     Br2780   1.929       .  S
C2785      C2786   1.423       .  A
C2785      C2790   1.419       .  A
C2786      C2787   1.412       .  A
C2786     Br2798   1.934       .  S
C2787      C2788   1.408       .  A
C2787     Br2802   1.931       .  S
C2788      C2791   1.490       .  S
C2788      C2789   1.406       .  A
C2789      C2790   1.409       .  A
C2789     Br2797   1.931       .  S
C2790     Br2801   1.933       .  S
C2791      C2792   1.410       .  A
C2791      C2796   1.408       .  A
C2792      C2793   1.411       .  A
C2792     Br2803   1.929       .  S
C2793      C2794   1.413       .  A
C2793     Br2799   1.930       .  S
C2794      C2795   1.417       .  A
C2795      C2796   1.408       .  A
C2795     Br2804   1.934       .  S
C2796     Br2800   1.931       .  S
C2805      C2806   1.413       .  A
C2805      C2810   1.410       .  A
C2806      C2807   1.404       .  A
C2806     Br2818   1.928       .  S
C2807      C2808   1.407       .  A
C2807     Br2822   1.934       .  S
C2808      C2811   1.482       .  S
C2808      C2809   1.411       .  A
C2809      C2810   1.409       .  A
C2809     Br2817   1.930       .  S
C2810     Br2821   1.929       .  S
C2811      C2812   1.409       .  A
C2811      C2816   1.409       .  A
C2812      C2813   1.405       .  A
C2812     Br2823   1.931       .  S
C2813      C2814   1.413       .  A
C2813     Br2819   1.933       .  S
C2814      C2815   1.410       .  A
C2815      C2816   1.406       .  A
C2815     Br2824   1.929       .  S
C2816     Br2820   1.931       .  S
C2825      C2826   1.411       .  A
C2825      C2830   1.413       .  A
C2826      C2827   1.407       .  A
C2826     Br2838   1.930       .  S
C2827      C2828   1.409       .  A
C2827     Br2842   1.930       .  S
C2828      C2831   1.484       .  S
C2828      C2829   1.408       .  A
C2829      C2830   1.407       .  A
C2829     Br2837   1.930       .  S
C2830     Br2841   1.932       .  S
C2831      C2832   1.407       .  A
C2831      C2836   1.408       .  A
C2832      C2833   1.408       .  A
C2832     Br2843   1.930       .  S
C2833      C2834   1.414       .  A
C2833     Br2839   1.931       .  S
C2834      C2835   1.412       .  A
C2835      C2836   1.407       .  A
C2835     Br2844   1.926       .  S
C2836     Br2840   1.931       .  S
C2845      C2846   1.416       .  A
C2845      C2850   1.414       .  A
C2846      C2847   1.409       .  A
C2846     Br2858   1.932       .  S
C2847      C2848   1.408       .  A
C2847     Br2862   1.931       .  S
C2848      C2851   1.491       .  S
C2848      C2849   1.410       .  A
C2849      C2850   1.412       .  A
C2849     Br2857   1.930       .  S
C2850     Br2861   1.930       .  S
C2851      C2852   1.408       .  A
C2851      C2856   1.409       .  A
C2852      C2853   1.408       .  A
C2852     Br2863   1.931       .  S
C2853      C2854   1.416       .  A
C2853     Br2859   1.928       .  S
C2854      C2855   1.421       .  A
C2855      C2856   1.412       .  A
C2855     Br2864   1.932       .  S
C2856     Br2860   1.930       .  S
C2865      C2866   1.418       .  A
C2865      C2870   1.416       .  A
C2866      C2867   1.409       .  A
C2866     Br2878   1.931       .  S
C2867      C2868   1.407       .  A
C2867     Br2882   1.932   1_554  S
C2868      C2871   1.490       .  S
C2868      C2869   1.409       .  A
C2869      C2870   1.413       .  A
C2869     Br2877   1.930       .  S
C2870     Br2881   1.930       .  S
C2871      C2872   1.411   1_554  A
C2871      C2876   1.405       .  A
C2872      C2873   1.413       .  A
C2872     Br2883   1.929       .  S
C2873      C2874   1.413       .  A
C2873     Br2879   1.929       .  S
C2874      C2875   1.419       .  A
C2875      C2876   1.406   1_556  A
C2875     Br2884   1.933   1_556  S
C2876     Br2880   1.932       .  S
C2885      C2886   1.408       .  A
C2885      C2890   1.414       .  A
C2886      C2887   1.409       .  A
C2886     Br2898   1.927       .  S
C2887      C2888   1.412       .  A
C2887     Br2902   1.930       .  S
C2888      C2891   1.483       .  S
C2888      C2889   1.405       .  A
C2889      C2890   1.405       .  A
C2889     Br2897   1.930   1_556  S
C2890     Br2901   1.933   1_556  S
C2891      C2892   1.410       .  A
C2891      C2896   1.408       .  A
C2892      C2893   1.407       .  A
C2892     Br2903   1.928       .  S
C2893      C2894   1.407       .  A
C2893     Br2899   1.929       .  S
C2894      C2895   1.409       .  A
C2895      C2896   1.406       .  A
C2895     Br2904   1.930       .  S
C2896     Br2900   1.930       .  S
C2905      C2906   1.411       .  A
C2905      C2910   1.417       .  A
C2906      C2907   1.417       .  A
C2906     Br2918   1.927       .  S
C2907      C2908   1.413       .  A
C2907     Br2922   1.928       .  S
C2908      C2911   1.497       .  S
C2908      C2909   1.407       .  A
C2909      C2910   1.408       .  A
C2909     Br2917   1.932       .  S
C2910     Br2921   1.929       .  S
C2911      C2912   1.409       .  A
C2911      C2916   1.408       .  A
C2912      C2913   1.414       .  A
C2912     Br2923   1.930       .  S
C2913      C2914   1.419       .  A
C2913     Br2919   1.932       .  S
C2914      C2915   1.422       .  A
C2915      C2916   1.413       .  A
C2915     Br2924   1.931       .  S
C2916     Br2920   1.932       .  S
C2925      C2926   1.411       .  A
C2925      C2930   1.410       .  A
C2926      C2927   1.408       .  A
C2926     Br2938   1.931       .  S
C2927      C2928   1.408       .  A
C2927     Br2942   1.929       .  S
C2928      C2931   1.484       .  S
C2928      C2929   1.409       .  A
C2929      C2930   1.406       .  A
C2929     Br2937   1.930       .  S
C2930     Br2941   1.928       .  S
C2931      C2932   1.407       .  A
C2931      C2936   1.411       .  A
C2932      C2933   1.407       .  A
C2932     Br2943   1.930       .  S
C2933      C2934   1.413       .  A
C2933     Br2939   1.931       .  S
C2934      C2935   1.406       .  A
C2935      C2936   1.408       .  A
C2935     Br2944   1.926       .  S
C2936     Br2940   1.929       .  S
C2945      C2946   1.411       .  A
C2945      C2950   1.408       .  A
C2946      C2947   1.404       .  A
C2946     Br2958   1.932       .  S
C2947      C2948   1.408       .  A
C2947     Br2962   1.930       .  S
C2948      C2951   1.480       .  S
C2948      C2949   1.410       .  A
C2949      C2950   1.405       .  A
C2949     Br2957   1.930       .  S
C2950     Br2961   1.930       .  S
C2951      C2952   1.405       .  A
C2951      C2956   1.409       .  A
C2952      C2953   1.403       .  A
C2952     Br2963   1.934       .  S
C2953      C2954   1.416       .  A
C2953     Br2959   1.934       .  S
C2954      C2955   1.414       .  A
C2955      C2956   1.410       .  A
C2955     Br2964   1.930       .  S
C2956     Br2960   1.930       .  S
C2965      C2966   1.417       .  A
C2965      C2970   1.415       .  A
C2966      C2967   1.409       .  A
C2966     Br2978   1.933       .  S
C2967      C2968   1.408       .  A
C2967     Br2982   1.931       .  S
C2968      C2971   1.490       .  S
C2968      C2969   1.409       .  A
C2969      C2970   1.411       .  A
C2969     Br2977   1.930       .  S
C2970     Br2981   1.930       .  S
C2971      C2972   1.411       .  A
C2971      C2976   1.407       .  A
C2972      C2973   1.412       .  A
C2972     Br2983   1.928       .  S
C2973      C2974   1.412       .  A
C2973     Br2979   1.930       .  S
C2974      C2975   1.418       .  A
C2975      C2976   1.406       .  A
C2975     Br2984   1.935       .  S
C2976     Br2980   1.931       .  S
C2985      C2986   1.408       .  A
C2985      C2990   1.407       .  A
C2986      C2987   1.408       .  A
C2986     Br2998   1.931       .  S
C2987      C2988   1.410       .  A
C2987     Br3002   1.928       .  S
C2988      C2991   1.489       .  S
C2988      C2989   1.412       .  A
C2989      C2990   1.408       .  A
C2989     Br2997   1.929       .  S
C2990     Br3001   1.928       .  S
C2991      C2992   1.409       .  A
C2991      C2996   1.412       .  A
C2992      C2993   1.409       .  A
C2992     Br3003   1.929       .  S
C2993      C2994   1.410       .  A
C2993     Br2999   1.929       .  S
C2994      C2995   1.408       .  A
C2995      C2996   1.410       .  A
C2995     Br3004   1.928       .  S
C2996     Br3000   1.930       .  S
C3005      C3006   1.417       .  A
C3005      C3010   1.421       .  A
C3006      C3007   1.414       .  A
C3006     Br3018   1.929       .  S
C3007      C3008   1.410       .  A
C3007     Br3022   1.929       .  S
C3008      C3011   1.495       .  S
C3008      C3009   1.407       .  A
C3009      C3010   1.410       .  A
C3009     Br3017   1.932       .  S
C3010     Br3021   1.935       .  S
C3011      C3012   1.412       .  A
C3011      C3016   1.408       .  A
C3012      C3013   1.415       .  A
C3012     Br3023   1.928       .  S
C3013      C3014   1.413       .  A
C3013     Br3019   1.927       .  S
C3014      C3015   1.418       .  A
C3015      C3016   1.409       .  A
C3015     Br3024   1.934       .  S
C3016     Br3020   1.931       .  S
C3025      C3026   1.413       .  A
C3025      C3030   1.414       .  A
C3026      C3027   1.406       .  A
C3026     Br3038   1.933       .  S
C3027      C3028   1.408       .  A
C3027     Br3042   1.931       .  S
C3028      C3031   1.486       .  S
C3028      C3029   1.409       .  A
C3029      C3030   1.411       .  A
C3029     Br3037   1.929       .  S
C3030     Br3041   1.930       .  S
C3031      C3032   1.408       .  A
C3031      C3036   1.405       .  A
C3032      C3033   1.411       .  A
C3032     Br3043   1.930       .  S
C3033      C3034   1.416       .  A
C3033     Br3039   1.929       .  S
C3034      C3035   1.420       .  A
C3035      C3036   1.407       .  A
C3035     Br3044   1.935       .  S
C3036     Br3040   1.933       .  S
C3045      C3046   1.412       .  A
C3045      C3050   1.419       .  A
C3046      C3047   1.410       .  A
C3046     Br3058   1.928       .  S
C3047      C3048   1.409       .  A
C3047     Br3062   1.929       .  S
C3048      C3051   1.481   1_554  S
C3048      C3049   1.404       .  A
C3049      C3050   1.403       .  A
C3049     Br3057   1.933   1_554  S
C3050     Br3061   1.934       .  S
C3051      C3052   1.407       .  A
C3051      C3056   1.407       .  A
C3052      C3053   1.409       .  A
C3052     Br3063   1.930       .  S
C3053      C3054   1.415       .  A
C3053     Br3059   1.930       .  S
C3054      C3055   1.414       .  A
C3055      C3056   1.404       .  A
C3055     Br3064   1.934       .  S
C3056     Br3060   1.932       .  S
C3065      C3066   1.427       .  A
C3065      C3070   1.425       .  A
C3066      C3067   1.408       .  A
C3066     Br3078   1.938       .  S
C3067      C3068   1.403       .  A
C3067     Br3082   1.935       .  S
C3068      C3071   1.485       .  S
C3068      C3069   1.407       .  A
C3069      C3070   1.410       .  A
C3069     Br3077   1.934       .  S
C3070     Br3081   1.934       .  S
C3071      C3072   1.411       .  A
C3071      C3076   1.406       .  A
C3072      C3073   1.410       .  A
C3072     Br3083   1.929       .  S
C3073      C3074   1.410       .  A
C3073     Br3079   1.929       .  S
C3074      C3075   1.417       .  A
C3075      C3076   1.404       .  A
C3075     Br3084   1.931       .  S
C3076     Br3080   1.933       .  S
C3085      C3086   1.415       .  A
C3085      C3090   1.417       .  A
C3086      C3087   1.411       .  A
C3086     Br3098   1.931       .  S
C3087      C3088   1.409       .  A
C3087     Br3102   1.930       .  S
C3088      C3091   1.491       .  S
C3088      C3089   1.407       .  A
C3089      C3090   1.411       .  A
C3089     Br3097   1.931       .  S
C3090     Br3101   1.925       .  S
C3091      C3092   1.409       .  A
C3091      C3096   1.410       .  A
C3092      C3093   1.411       .  A
C3092     Br3103   1.929       .  S
C3093      C3094   1.415       .  A
C3093     Br3099   1.931       .  S
C3094      C3095   1.411       .  A
C3095      C3096   1.409       .  A
C3095     Br3104   1.929       .  S
C3096     Br3100   1.929       .  S
C3105      C3106   1.411       .  A
C3105      C3110   1.409       .  A
C3106      C3107   1.406       .  A
C3106     Br3118   1.931       .  S
C3107      C3108   1.408       .  A
C3107     Br3122   1.929       .  S
C3108      C3111   1.481       .  S
C3108      C3109   1.409       .  A
C3109      C3110   1.406       .  A
C3109     Br3117   1.930       .  S
C3110     Br3121   1.930       .  S
C3111      C3112   1.407       .  A
C3111      C3116   1.411       .  A
C3112      C3113   1.403       .  A
C3112     Br3123   1.930       .  S
C3113      C3114   1.410       .  A
C3113     Br3119   1.931       .  S
C3114      C3115   1.407       .  A
C3115      C3116   1.408       .  A
C3115     Br3124   1.927   1_556  S
C3116     Br3120   1.928   1_556  S
C3125      C3126   1.415       .  A
C3125      C3130   1.415       .  A
C3126      C3127   1.410       .  A
C3126     Br3138   1.931       .  S
C3127      C3128   1.409       .  A
C3127     Br3142   1.930       .  S
C3128      C3131   1.485       .  S
C3128      C3129   1.406       .  A
C3129      C3130   1.407       .  A
C3129     Br3137   1.931       .  S
C3130     Br3141   1.931       .  S
C3131      C3132   1.407       .  A
C3131      C3136   1.409       .  A
C3132      C3133   1.409       .  A
C3132     Br3143   1.929       .  S
C3133      C3134   1.414       .  A
C3133     Br3139   1.931       .  S
C3134      C3135   1.412       .  A
C3135      C3136   1.408       .  A
C3135     Br3144   1.930       .  S
C3136     Br3140   1.931       .  S
C3145      C3146   1.410       .  A
C3145      C3150   1.408       .  A
C3146      C3147   1.401       .  A
C3146     Br3158   1.933       .  S
C3147      C3148   1.406       .  A
C3147     Br3162   1.930       .  S
C3148      C3151   1.476       .  S
C3148      C3149   1.410       .  A
C3149      C3150   1.407       .  A
C3149     Br3157   1.929       .  S
C3150     Br3161   1.930       .  S
C3151      C3152   1.410       .  A
C3151      C3156   1.404       .  A
C3152      C3153   1.407       .  A
C3152     Br3163   1.929       .  S
C3153      C3154   1.408       .  A
C3153     Br3159   1.929       .  S
C3154      C3155   1.412       .  A
C3155      C3156   1.402       .  A
C3155     Br3164   1.931       .  S
C3156     Br3160   1.932       .  S
C3165      C3166   1.411   1_565  A
C3165      C3170   1.417       .  A
C3166      C3167   1.410       .  A
C3166     Br3178   1.929       .  S
C3167      C3168   1.410       .  A
C3167     Br3182   1.929       .  S
C3168      C3171   1.483       .  S
C3168      C3169   1.405   1_545  A
C3169      C3170   1.405       .  A
C3169     Br3177   1.933       .  S
C3170     Br3181   1.934       .  S
C3171      C3172   1.407   1_545  A
C3171      C3176   1.407       .  A
C3172      C3173   1.408       .  A
C3172     Br3183   1.931       .  S
C3173      C3174   1.418   1_565  A
C3173     Br3179   1.933       .  S
C3174      C3175   1.415       .  A
C3175      C3176   1.407       .  A
C3175     Br3184   1.931       .  S
C3176     Br3180   1.931       .  S
C3185      C3186   1.414   1_545  A
C3185      C3190   1.414       .  A
C3186      C3187   1.407       .  A
C3186     Br3198   1.930       .  S
C3187      C3188   1.408   1_565  A
C3187     Br3202   1.932       .  S
C3188      C3191   1.484       .  S
C3188      C3189   1.408       .  A
C3189      C3190   1.408       .  A
C3189     Br3197   1.929       .  S
C3190     Br3201   1.932       .  S
C3191      C3192   1.410       .  A
C3191      C3196   1.405       .  A
C3192      C3193   1.410       .  A
C3192     Br3203   1.929   1_545  S
C3193      C3194   1.412       .  A
C3193     Br3199   1.930   1_545  S
C3194      C3195   1.418       .  A
C3195      C3196   1.406       .  A
C3195     Br3204   1.934       .  S
C3196     Br3200   1.931       .  S
C3205      C3206   1.407       .  A
C3205      C3210   1.411       .  A
C3206      C3207   1.407       .  A
C3206     Br3218   1.929       .  S
C3207      C3208   1.410       .  A
C3207     Br3222   1.929       .  S
C3208      C3211   1.487       .  S
C3208      C3209   1.410       .  A
C3209      C3210   1.410       .  A
C3209     Br3217   1.929       .  S
C3210     Br3221   1.929       .  S
C3211      C3212   1.410       .  A
C3211      C3216   1.411       .  A
C3212      C3213   1.407       .  A
C3212     Br3223   1.930       .  S
C3213      C3214   1.410       .  A
C3213     Br3219   1.931       .  S
C3214      C3215   1.410       .  A
C3215      C3216   1.409       .  A
C3215     Br3224   1.929       .  S
C3216     Br3220   1.928       .  S
C3225      C3226   1.412       .  A
C3225      C3230   1.418   1_545  A
C3226      C3227   1.416       .  A
C3226     Br3238   1.928       .  S
C3227      C3228   1.413       .  A
C3227     Br3242   1.927       .  S
C3228      C3231   1.498       .  S
C3228      C3229   1.408   1_545  A
C3229      C3230   1.411       .  A
C3229     Br3237   1.932       .  S
C3230     Br3241   1.930       .  S
C3231      C3232   1.411       .  A
C3231      C3236   1.407   1_545  A
C3232      C3233   1.417       .  A
C3232     Br3243   1.928       .  S
C3233      C3234   1.417   1_545  A
C3233     Br3239   1.930       .  S
C3234      C3235   1.424       .  A
C3235      C3236   1.410       .  A
C3235     Br3244   1.936       .  S
C3236     Br3240   1.934       .  S
C3245      C3246   1.412       .  A
C3245      C3250   1.415       .  A
C3246      C3247   1.408       .  A
C3246     Br3258   1.926       .  S
C3247      C3248   1.409       .  A
C3247     Br3262   1.931       .  S
C3248      C3251   1.492       .  S
C3248      C3249   1.410       .  A
C3249      C3250   1.414       .  A
C3249     Br3257   1.928       .  S
C3250     Br3261   1.929       .  S
C3251      C3252   1.412       .  A
C3251      C3256   1.408       .  A
C3252      C3253   1.413       .  A
C3252     Br3263   1.927       .  S
C3253      C3254   1.410       .  A
C3253     Br3259   1.928       .  S
C3254      C3255   1.413       .  A
C3255      C3256   1.408       .  A
C3255     Br3264   1.931       .  S
C3256     Br3260   1.929       .  S
C3265      C3266   1.412       .  A
C3265      C3270   1.415       .  A
C3266      C3267   1.408       .  A
C3266     Br3278   1.932       .  S
C3267      C3268   1.409       .  A
C3267     Br3282   1.929       .  S
C3268      C3271   1.492       .  S
C3268      C3269   1.411       .  A
C3269      C3270   1.413       .  A
C3269     Br3277   1.929       .  S
C3270     Br3281   1.928       .  S
C3271      C3272   1.410       .  A
C3271      C3276   1.410       .  A
C3272      C3273   1.411       .  A
C3272     Br3283   1.929       .  S
C3273      C3274   1.411       .  A
C3273     Br3279   1.929       .  S
C3274      C3275   1.412       .  A
C3275      C3276   1.411       .  A
C3275     Br3284   1.929       .  S
C3276     Br3280   1.929       .  S
C3285      C3286   1.415       .  A
C3285      C3290   1.410   1_545  A
C3286      C3287   1.406       .  A
C3286     Br3298   1.932       .  S
C3287      C3288   1.407       .  A
C3287     Br3302   1.931       .  S
C3288      C3291   1.484       .  S
C3288      C3289   1.409   1_545  A
C3289      C3290   1.408       .  A
C3289     Br3297   1.929       .  S
C3290     Br3301   1.930       .  S
C3291      C3292   1.407   1_545  A
C3291      C3296   1.405       .  A
C3292      C3293   1.408       .  A
C3292     Br3303   1.932       .  S
C3293      C3294   1.418   1_565  A
C3293     Br3299   1.933       .  S
C3294      C3295   1.420       .  A
C3295      C3296   1.408       .  A
C3295     Br3304   1.932       .  S
C3296     Br3300   1.932       .  S
C3305      C3306   1.422   1_565  A
C3305      C3310   1.426       .  A
C3306      C3307   1.414       .  A
C3306     Br3318   1.933       .  S
C3307      C3308   1.411       .  A
C3307     Br3322   1.933       .  S
C3308      C3311   1.499       .  S
C3308      C3309   1.407   1_545  A
C3309      C3310   1.412       .  A
C3309     Br3317   1.935       .  S
C3310     Br3321   1.935       .  S
C3311      C3312   1.416       .  A
C3311      C3316   1.410       .  A
C3312      C3313   1.415       .  A
C3312     Br3323   1.928       .  S
C3313      C3314   1.408       .  A
C3313     Br3319   1.927       .  S
C3314      C3315   1.413       .  A
C3315      C3316   1.406       .  A
C3315     Br3324   1.927       .  S
C3316     Br3320   1.932       .  S
C3325      C3326   1.413       .  A
C3325      C3330   1.409       .  A
C3326      C3327   1.404       .  A
C3326     Br3338   1.932       .  S
C3327      C3328   1.405       .  A
C3327     Br3342   1.931       .  S
C3328      C3331   1.481       .  S
C3328      C3329   1.410       .  A
C3329      C3330   1.409       .  A
C3329     Br3337   1.929       .  S
C3330     Br3341   1.925       .  S
C3331      C3332   1.409       .  A
C3331      C3336   1.408       .  A
C3332      C3333   1.409       .  A
C3332     Br3343   1.928       .  S
C3333      C3334   1.411       .  A
C3333     Br3339   1.929       .  S
C3334      C3335   1.411       .  A
C3335      C3336   1.403       .  A
C3335     Br3344   1.933       .  S
C3336     Br3340   1.932       .  S
C3345      C3346   1.417       .  A
C3345      C3350   1.412   1_565  A
C3346      C3347   1.408       .  A
C3346     Br3358   1.933       .  S
C3347      C3348   1.408       .  A
C3347     Br3362   1.932       .  S
C3348      C3351   1.491   1_566  S
C3348      C3349   1.412   1_565  A
C3349      C3350   1.412       .  A
C3349     Br3357   1.929       .  S
C3350     Br3361   1.929       .  S
C3351      C3352   1.409       .  A
C3351      C3356   1.409   1_545  A
C3352      C3353   1.408       .  A
C3352     Br3363   1.931   1_554  S
C3353      C3354   1.415       .  A
C3353     Br3359   1.931       .  S
C3354      C3355   1.422   1_545  A
C3355      C3356   1.411       .  A
C3355     Br3364   1.937       .  S
C3356     Br3360   1.931   1_554  S
C3365      C3366   1.411       .  A
C3365      C3370   1.411   1_545  A
C3366      C3367   1.408       .  A
C3366     Br3378   1.931       .  S
C3367      C3368   1.409       .  A
C3367     Br3382   1.928       .  S
C3368      C3371   1.480       .  S
C3368      C3369   1.407   1_545  A
C3369      C3370   1.403       .  A
C3369     Br3377   1.931       .  S
C3370     Br3381   1.932       .  S
C3371      C3372   1.406       .  A
C3371      C3376   1.408       .  A
C3372      C3373   1.404       .  A
C3372     Br3383   1.934       .  S
C3373      C3374   1.417       .  A
C3373     Br3379   1.934       .  S
C3374      C3375   1.413       .  A
C3375      C3376   1.410       .  A
C3375     Br3384   1.929   1_545  S
C3376     Br3380   1.929   1_545  S
C3385      C3386   1.421       .  A
C3385      C3390   1.419       .  A
C3386      C3387   1.412       .  A
C3386     Br3398   1.933       .  S
C3387      C3388   1.407       .  A
C3387     Br3402   1.931       .  S
C3388      C3391   1.490       .  S
C3388      C3389   1.406       .  A
C3389      C3390   1.409       .  A
C3389     Br3397   1.932       .  S
C3390     Br3401   1.928       .  S
C3391      C3392   1.409       .  A
C3391      C3396   1.409       .  A
C3392      C3393   1.411       .  A
C3392     Br3403   1.930       .  S
C3393      C3394   1.416       .  A
C3393     Br3399   1.931       .  S
C3394      C3395   1.413       .  A
C3395      C3396   1.409       .  A
C3395     Br3404   1.932       .  S
C3396     Br3400   1.930       .  S
C3405      C3406   1.415   1_565  A
C3405      C3410   1.421       .  A
C3406      C3407   1.414       .  A
C3406     Br3418   1.928       .  S
C3407      C3408   1.410   1_545  A
C3407     Br3422   1.929       .  S
C3408      C3411   1.495       .  S
C3408      C3409   1.407       .  A
C3409      C3410   1.411       .  A
C3409     Br3417   1.932       .  S
C3410     Br3421   1.934       .  S
C3411      C3412   1.412   1_565  A
C3411      C3416   1.407       .  A
C3412      C3413   1.415       .  A
C3412     Br3423   1.928       .  S
C3413      C3414   1.413   1_545  A
C3413     Br3419   1.927       .  S
C3414      C3415   1.418       .  A
C3415      C3416   1.408       .  A
C3415     Br3424   1.933       .  S
C3416     Br3420   1.932       .  S
C3425      C3426   1.414   1_545  A
C3425      C3430   1.415       .  A
C3426      C3427   1.410       .  A
C3426     Br3438   1.932       .  S
C3427      C3428   1.410       .  A
C3427     Br3442   1.928       .  S
C3428      C3431   1.482       .  S
C3428      C3429   1.406   1_565  A
C3429      C3430   1.402       .  A
C3429     Br3437   1.934       .  S
C3430     Br3441   1.934       .  S
C3431      C3432   1.406       .  A
C3431      C3436   1.406   1_565  A
C3432      C3433   1.409       .  A
C3432     Br3443   1.931       .  S
C3433      C3434   1.419       .  A
C3433     Br3439   1.933       .  S
C3434      C3435   1.420   1_565  A
C3435      C3436   1.407       .  A
C3435     Br3444   1.934       .  S
C3436     Br3440   1.933       .  S
C3445      C3446   1.411       .  A
C3445      C3450   1.415       .  A
C3446      C3447   1.411   1_545  A
C3446     Br3458   1.928   1_545  S
C3447      C3448   1.411   1_565  A
C3447     Br3462   1.929       .  S
C3448      C3451   1.489       .  S
C3448      C3449   1.407       .  A
C3449      C3450   1.407       .  A
C3449     Br3457   1.932       .  S
C3450     Br3461   1.930       .  S
C3451      C3452   1.406   1_544  A
C3451      C3456   1.410   1_554  A
C3452      C3453   1.407       .  A
C3452     Br3463   1.930   1_556  S
C3453      C3454   1.418   1_565  A
C3453     Br3459   1.935       .  S
C3454      C3455   1.418       .  A
C3455      C3456   1.410       .  A
C3455     Br3464   1.931       .  S
C3456     Br3460   1.932   1_556  S
C3465      C3466   1.426       .  A
C3465      C3470   1.423   1_545  A
C3466      C3467   1.414       .  A
C3466     Br3478   1.928       .  S
C3467      C3468   1.407       .  A
C3467     Br3482   1.933       .  S
C3468      C3471   1.500   1_655  S
C3468      C3469   1.408   1_545  A
C3469      C3470   1.417       .  A
C3469     Br3477   1.930   1_655  S
C3470     Br3481   1.929       .  S
C3471      C3472   1.413   1_545  A
C3471      C3476   1.407       .  A
C3472      C3473   1.417   1_565  A
C3472     Br3483   1.927   1_455  S
C3473      C3474   1.413       .  A
C3473     Br3479   1.927   1_545  S
C3474      C3475   1.421       .  A
C3475      C3476   1.411       .  A
C3475     Br3484   1.932       .  S
C3476     Br3480   1.932       .  S
C3485      C3486   1.411       .  A
C3485      C3490   1.417   1_545  A
C3486      C3487   1.410       .  A
C3486     Br3498   1.929       .  S
C3487      C3488   1.410   1_545  A
C3487     Br3502   1.931       .  S
C3488      C3491   1.488       .  S
C3488      C3489   1.407       .  A
C3489      C3490   1.409       .  A
C3489     Br3497   1.930       .  S
C3490     Br3501   1.931       .  S
C3491      C3492   1.409   1_565  A
C3491      C3496   1.408       .  A
C3492      C3493   1.408       .  A
C3492     Br3503   1.931       .  S
C3493      C3494   1.412       .  A
C3493     Br3499   1.930       .  S
C3494      C3495   1.413   1_545  A
C3495      C3496   1.409       .  A
C3495     Br3504   1.932       .  S
C3496     Br3500   1.928       .  S
C3505      C3506   1.421   1_545  A
C3505      C3510   1.414       .  A
C3506      C3507   1.407       .  A
C3506     Br3518   1.933       .  S
C3507      C3508   1.405   1_565  A
C3507     Br3522   1.934   1_556  S
C3508      C3511   1.489   1_456  S
C3508      C3509   1.410       .  A
C3509      C3510   1.413       .  A
C3509     Br3517   1.929   1_455  S
C3510     Br3521   1.928       .  S
C3511      C3512   1.406   1_544  A
C3511      C3516   1.410       .  A
C3512      C3513   1.408   1_556  A
C3512     Br3523   1.932       .  S
C3513      C3514   1.420       .  A
C3513     Br3519   1.935   1_554  S
C3514      C3515   1.413   1_565  A
C3515      C3516   1.411       .  A
C3515     Br3524   1.928       .  S
C3516     Br3520   1.929       .  S
C3525      C3526   1.414       .  A
C3525      C3530   1.416   1_565  A
C3526      C3527   1.413       .  A
C3526     Br3538   1.930       .  S
C3527      C3528   1.410       .  A
C3527     Br3542   1.929       .  S
C3528      C3531   1.491       .  S
C3528      C3529   1.408   1_565  A
C3529      C3530   1.407       .  A
C3529     Br3537   1.932       .  S
C3530     Br3541   1.933       .  S
C3531      C3532   1.410       .  A
C3531      C3536   1.407   1_565  A
C3532      C3533   1.411       .  A
C3532     Br3543   1.929       .  S
C3533      C3534   1.414   1_565  A
C3533     Br3539   1.930       .  S
C3534      C3535   1.420       .  A
C3535      C3536   1.409       .  A
C3535     Br3544   1.935       .  S
C3536     Br3540   1.931       .  S
C3545      C3546   1.409       .  A
C3545      C3550   1.415       .  A
C3546      C3547   1.409       .  A
C3546     Br3558   1.929   1_545  S
C3547      C3548   1.410       .  A
C3547     Br3562   1.928   1_545  S
C3548      C3551   1.482       .  S
C3548      C3549   1.406       .  A
C3549      C3550   1.403       .  A
C3549     Br3557   1.932       .  S
C3550     Br3561   1.933       .  S
C3551      C3552   1.405   1_545  A
C3551      C3556   1.405       .  A
C3552      C3553   1.409       .  A
C3552     Br3563   1.932       .  S
C3553      C3554   1.420   1_565  A
C3553     Br3559   1.932       .  S
C3554      C3555   1.421       .  A
C3555      C3556   1.407       .  A
C3555     Br3564   1.929       .  S
C3556     Br3560   1.934       .  S
C3565      C3566   1.418   1_545  A
C3565      C3570   1.416       .  A
C3566      C3567   1.409       .  A
C3566     Br3578   1.932       .  S
C3567      C3568   1.407   1_565  A
C3567     Br3582   1.931       .  S
C3568      C3571   1.491       .  S
C3568      C3569   1.410       .  A
C3569      C3570   1.412       .  A
C3569     Br3577   1.930       .  S
C3570     Br3581   1.932       .  S
C3571      C3572   1.409   1_545  A
C3571      C3576   1.410       .  A
C3572      C3573   1.410       .  A
C3572     Br3583   1.930       .  S
C3573      C3574   1.416   1_565  A
C3573     Br3579   1.932       .  S
C3574      C3575   1.413       .  A
C3575      C3576   1.410       .  A
C3575     Br3584   1.932       .  S
C3576     Br3580   1.929       .  S
C3585      C3586   1.419       .  A
C3585      C3590   1.419       .  A
C3586      C3587   1.414       .  A
C3586     Br3598   1.923       .  S
C3587      C3588   1.408       .  A
C3587     Br3602   1.932       .  S
C3588      C3591   1.495       .  S
C3588      C3589   1.408       .  A
C3589      C3590   1.412       .  A
C3589     Br3597   1.931       .  S
C3590     Br3601   1.932       .  S
C3591      C3592   1.409       .  A
C3591      C3596   1.409       .  A
C3592      C3593   1.412       .  A
C3592     Br3603   1.930       .  S
C3593      C3594   1.416       .  A
C3593     Br3599   1.927       .  S
C3594      C3595   1.416       .  A
C3595      C3596   1.411       .  A
C3595     Br3604   1.931       .  S
C3596     Br3600   1.930       .  S
C3605      C3606   1.412       .  A
C3605      C3610   1.416       .  A
C3606      C3607   1.409       .  A
C3606     Br3618   1.932       .  S
C3607      C3608   1.411       .  A
C3607     Br3622   1.930       .  S
C3608      C3611   1.488       .  S
C3608      C3609   1.408       .  A
C3609      C3610   1.407       .  A
C3609     Br3617   1.931       .  S
C3610     Br3621   1.933       .  S
C3611      C3612   1.411       .  A
C3611      C3616   1.408       .  A
C3612      C3613   1.411       .  A
C3612     Br3623   1.931       .  S
C3613      C3614   1.415       .  A
C3613     Br3619   1.931       .  S
C3614      C3615   1.415       .  A
C3615      C3616   1.407       .  A
C3615     Br3624   1.933       .  S
C3616     Br3620   1.932       .  S
C3625      C3626   1.416       .  A
C3625      C3630   1.419       .  A
C3626      C3627   1.407       .  A
C3626     Br3638   1.934       .  S
C3627      C3628   1.406       .  A
C3627     Br3642   1.930       .  S
C3628      C3631   1.488       .  S
C3628      C3629   1.409       .  A
C3629      C3630   1.412       .  A
C3629     Br3637   1.931       .  S
C3630     Br3641   1.932       .  S
C3631      C3632   1.407       .  A
C3631      C3636   1.410       .  A
C3632      C3633   1.407       .  A
C3632     Br3643   1.932       .  S
C3633      C3634   1.416       .  A
C3633     Br3639   1.930       .  S
C3634      C3635   1.410       .  A
C3635      C3636   1.410       .  A
C3635     Br3644   1.929       .  S
C3636     Br3640   1.928       .  S
C3645      C3646   1.412       .  A
C3645      C3650   1.410       .  A
C3646      C3647   1.406       .  A
C3646     Br3658   1.932       .  S
C3647      C3648   1.408       .  A
C3647     Br3662   1.930       .  S
C3648      C3651   1.480       .  S
C3648      C3649   1.408       .  A
C3649      C3650   1.406       .  A
C3649     Br3657   1.930       .  S
C3650     Br3661   1.930       .  S
C3651      C3652   1.407       .  A
C3651      C3656   1.409       .  A
C3652      C3653   1.406       .  A
C3652     Br3663   1.931       .  S
C3653      C3654   1.415       .  A
C3653     Br3659   1.933       .  S
C3654      C3655   1.411       .  A
C3655      C3656   1.406       .  A
C3655     Br3664   1.930       .  S
C3656     Br3660   1.931       .  S
C3665      C3666   1.412       .  A
C3665      C3670   1.420       .  A
C3666      C3667   1.412       .  A
C3666     Br3678   1.929       .  S
C3667      C3668   1.411       .  A
C3667     Br3682   1.928       .  S
C3668      C3671   1.489   1_655  S
C3668      C3669   1.406       .  A
C3669      C3670   1.407       .  A
C3669     Br3677   1.933       .  S
C3670     Br3681   1.934       .  S
C3671      C3672   1.411       .  A
C3671      C3676   1.404       .  A
C3672      C3673   1.415       .  A
C3672     Br3683   1.928   1_455  S
C3673      C3674   1.415       .  A
C3673     Br3679   1.928       .  S
C3674      C3675   1.414       .  A
C3675      C3676   1.404       .  A
C3675     Br3684   1.917       .  S
C3676     Br3680   1.933       .  S
C3685      C3686   1.420       .  A
C3685      C3690   1.419       .  A
C3686      C3687   1.408       .  A
C3686     Br3698   1.935       .  S
C3687      C3688   1.406       .  A
C3687     Br3702   1.932       .  S
C3688      C3691   1.487       .  S
C3688      C3689   1.407       .  A
C3689      C3690   1.412       .  A
C3689     Br3697   1.932       .  S
C3690     Br3701   1.926       .  S
C3691      C3692   1.409       .  A
C3691      C3696   1.408       .  A
C3692      C3693   1.409       .  A
C3692     Br3703   1.930       .  S
C3693      C3694   1.415       .  A
C3693     Br3699   1.932       .  S
C3694      C3695   1.411       .  A
C3695      C3696   1.407       .  A
C3695     Br3704   1.928       .  S
C3696     Br3700   1.929       .  S
C3705      C3706   1.412       .  A
C3705      C3710   1.414       .  A
C3706      C3707   1.410       .  A
C3706     Br3718   1.930       .  S
C3707      C3708   1.410       .  A
C3707     Br3722   1.930       .  S
C3708      C3711   1.488       .  S
C3708      C3709   1.407       .  A
C3709      C3710   1.408       .  A
C3709     Br3717   1.930       .  S
C3710     Br3721   1.928       .  S
C3711      C3712   1.408       .  A
C3711      C3716   1.408       .  A
C3712      C3713   1.410       .  A
C3712     Br3723   1.930       .  S
C3713      C3714   1.415       .  A
C3713     Br3719   1.931       .  S
C3714      C3715   1.414       .  A
C3715      C3716   1.409       .  A
C3715     Br3724   1.931       .  S
C3716     Br3720   1.930       .  S
C3725      C3726   1.423       .  A
C3725      C3730   1.414       .  A
C3726      C3727   1.408       .  A
C3726     Br3738   1.931       .  S
C3727      C3728   1.405       .  A
C3727     Br3742   1.935       .  S
C3728      C3731   1.497   1_655  S
C3728      C3729   1.413       .  A
C3729      C3730   1.418       .  A
C3729     Br3737   1.927   1_655  S
C3730     Br3741   1.928       .  S
C3731      C3732   1.407       .  A
C3731      C3736   1.408       .  A
C3732      C3733   1.412       .  A
C3732     Br3743   1.933       .  S
C3733      C3734   1.423       .  A
C3733     Br3739   1.931       .  S
C3734      C3735   1.421       .  A
C3735      C3736   1.415       .  A
C3735     Br3744   1.931       .  S
C3736     Br3740   1.930   1_455  S
C3745      C3746   1.414       .  A
C3745      C3750   1.421       .  A
C3746      C3747   1.407       .  A
C3746     Br3758   1.930       .  S
C3747      C3748   1.407       .  A
C3747     Br3762   1.932       .  S
C3748      C3751   1.484       .  S
C3748      C3749   1.406       .  A
C3749      C3750   1.409       .  A
C3749     Br3757   1.931       .  S
C3750     Br3761   1.934       .  S
C3751      C3752   1.410       .  A
C3751      C3756   1.405       .  A
C3752      C3753   1.412       .  A
C3752     Br3763   1.928       .  S
C3753      C3754   1.413       .  A
C3753     Br3759   1.929       .  S
C3754      C3755   1.418       .  A
C3755      C3756   1.403       .  A
C3755     Br3764   1.935       .  S
C3756     Br3760   1.933       .  S
C3765      C3766   1.410       .  A
C3765      C3770   1.418       .  A
C3766      C3767   1.410       .  A
C3766     Br3778   1.929       .  S
C3767      C3768   1.410       .  A
C3767     Br3782   1.929       .  S
C3768      C3771   1.485   1_554  S
C3768      C3769   1.406       .  A
C3769      C3770   1.405       .  A
C3769     Br3777   1.932       .  S
C3770     Br3781   1.934       .  S
C3771      C3772   1.408       .  A
C3771      C3776   1.407       .  A
C3772      C3773   1.408       .  A
C3772     Br3783   1.929   1_556  S
C3773      C3774   1.413       .  A
C3773     Br3779   1.931       .  S
C3774      C3775   1.417       .  A
C3775      C3776   1.408       .  A
C3775     Br3784   1.932       .  S
C3776     Br3780   1.932       .  S
C3785      C3786   1.419       .  A
C3785      C3790   1.419       .  A
C3786      C3787   1.408       .  A
C3786     Br3798   1.934       .  S
C3787      C3788   1.406       .  A
C3787     Br3802   1.933       .  S
C3788      C3791   1.493       .  S
C3788      C3789   1.410       .  A
C3789      C3790   1.415       .  A
C3789     Br3797   1.930       .  S
C3790     Br3801   1.930       .  S
C3791      C3792   1.410       .  A
C3791      C3796   1.409       .  A
C3792      C3793   1.411       .  A
C3792     Br3803   1.930       .  S
C3793      C3794   1.415       .  A
C3793     Br3799   1.931       .  S
C3794      C3795   1.416       .  A
C3795      C3796   1.411       .  A
C3795     Br3804   1.932       .  S
C3796     Br3800   1.930       .  S
C3805      C3806   1.412       .  A
C3805      C3810   1.414       .  A
C3806      C3807   1.414       .  A
C3806     Br3818   1.929       .  S
C3807      C3808   1.413       .  A
C3807     Br3822   1.928       .  S
C3808      C3811   1.497       .  S
C3808      C3809   1.408       .  A
C3809      C3810   1.409       .  A
C3809     Br3817   1.930       .  S
C3810     Br3821   1.924       .  S
C3811      C3812   1.410       .  A
C3811      C3816   1.409       .  A
C3812      C3813   1.413       .  A
C3812     Br3823   1.931       .  S
C3813      C3814   1.416       .  A
C3813     Br3819   1.930       .  S
C3814      C3815   1.421       .  A
C3815      C3816   1.414       .  A
C3815     Br3824   1.932       .  S
C3816     Br3820   1.931       .  S
C3825      C3826   1.411       .  A
C3825      C3830   1.406       .  A
C3826      C3827   1.405       .  A
C3826     Br3838   1.932       .  S
C3827      C3828   1.408       .  A
C3827     Br3842   1.930       .  S
C3828      C3831   1.484       .  S
C3828      C3829   1.411       .  A
C3829      C3830   1.409       .  A
C3829     Br3837   1.927       .  S
C3830     Br3841   1.928       .  S
C3831      C3832   1.410       .  A
C3831      C3836   1.408       .  A
C3832      C3833   1.409       .  A
C3832     Br3843   1.930       .  S
C3833      C3834   1.409       .  A
C3833     Br3839   1.927       .  S
C3834      C3835   1.410       .  A
C3835      C3836   1.407       .  A
C3835     Br3844   1.929       .  S
C3836     Br3840   1.930       .  S
C3845      C3846   1.412       .  A
C3845      C3850   1.408       .  A
C3846      C3847   1.409       .  A
C3846     Br3858   1.930       .  S
C3847      C3848   1.409       .  A
C3847     Br3862   1.930       .  S
C3848      C3851   1.491       .  S
C3848      C3849   1.413       .  A
C3849      C3850   1.412       .  A
C3849     Br3857   1.928       .  S
C3850     Br3861   1.927       .  S
C3851      C3852   1.411       .  A
C3851      C3856   1.411       .  A
C3852      C3853   1.408       .  A
C3852     Br3863   1.930       .  S
C3853      C3854   1.408       .  A
C3853     Br3859   1.928       .  S
C3854      C3855   1.410       .  A
C3855      C3856   1.411       .  A
C3855     Br3864   1.931       .  S
C3856     Br3860   1.927       .  S
C3865      C3866   1.412       .  A
C3865      C3870   1.416       .  A
C3866      C3867   1.411       .  A
C3866     Br3878   1.930       .  S
C3867      C3868   1.411       .  A
C3867     Br3882   1.929       .  S
C3868      C3871   1.485       .  S
C3868      C3869   1.406       .  A
C3869      C3870   1.405       .  A
C3869     Br3877   1.932       .  S
C3870     Br3881   1.934       .  S
C3871      C3872   1.409       .  A
C3871      C3876   1.409       .  A
C3872      C3873   1.408       .  A
C3872     Br3883   1.929       .  S
C3873      C3874   1.410       .  A
C3873     Br3879   1.929       .  S
C3874      C3875   1.413       .  A
C3875      C3876   1.408       .  A
C3875     Br3884   1.930       .  S
C3876     Br3880   1.931       .  S
C3885      C3886   1.415   1_556  A
C3885      C3890   1.411   1_556  A
C3886      C3887   1.403       .  A
C3886     Br3898   1.935   1_554  S
C3887      C3888   1.406       .  A
C3887     Br3902   1.933       .  S
C3888      C3891   1.485       .  S
C3888      C3889   1.411       .  A
C3889      C3890   1.412       .  A
C3889     Br3897   1.927       .  S
C3890     Br3901   1.929   1_554  S
C3891      C3892   1.408       .  A
C3891      C3896   1.407       .  A
C3892      C3893   1.411       .  A
C3892     Br3903   1.929       .  S
C3893      C3894   1.415       .  A
C3893     Br3899   1.930       .  S
C3894      C3895   1.414       .  A
C3895      C3896   1.407       .  A
C3895     Br3904   1.931       .  S
C3896     Br3900   1.931       .  S
C3905      C3906   1.415       .  A
C3905      C3910   1.422       .  A
C3906      C3907   1.413       .  A
C3906     Br3918   1.929       .  S
C3907      C3908   1.410       .  A
C3907     Br3922   1.929   1_455  S
C3908      C3911   1.491   1_455  S
C3908      C3909   1.405       .  A
C3909      C3910   1.408       .  A
C3909     Br3917   1.933       .  S
C3910     Br3921   1.933       .  S
C3911      C3912   1.411       .  A
C3911      C3916   1.405       .  A
C3912      C3913   1.415       .  A
C3912     Br3923   1.929   1_655  S
C3913      C3914   1.413       .  A
C3913     Br3919   1.927       .  S
C3914      C3915   1.421       .  A
C3915      C3916   1.407       .  A
C3915     Br3924   1.933       .  S
C3916     Br3920   1.933       .  S
C3925      C3926   1.406       .  A
C3925      C3930   1.410       .  A
C3926      C3927   1.407       .  A
C3926     Br3938   1.928       .  S
C3927      C3928   1.411       .  A
C3927     Br3942   1.929       .  S
C3928      C3931   1.485       .  S
C3928      C3929   1.409       .  A
C3929      C3930   1.408       .  A
C3929     Br3937   1.929       .  S
C3930     Br3941   1.930       .  S
C3931      C3932   1.408       .  A
C3931      C3936   1.411       .  A
C3932      C3933   1.405       .  A
C3932     Br3943   1.929       .  S
C3933      C3934   1.409       .  A
C3933     Br3939   1.930       .  S
C3934      C3935   1.408       .  A
C3935      C3936   1.410       .  A
C3935     Br3944   1.928       .  S
C3936     Br3940   1.928       .  S
C3945      C3946   1.412       .  A
C3945      C3950   1.415       .  A
C3946      C3947   1.407       .  A
C3946     Br3958   1.931       .  S
C3947      C3948   1.408       .  A
C3947     Br3962   1.930       .  S
C3948      C3951   1.485       .  S
C3948      C3949   1.408       .  A
C3949      C3950   1.408       .  A
C3949     Br3957   1.930       .  S
C3950     Br3961   1.933       .  S
C3951      C3952   1.410       .  A
C3951      C3956   1.407       .  A
C3952      C3953   1.409       .  A
C3952     Br3963   1.929       .  S
C3953      C3954   1.411       .  A
C3953     Br3959   1.930       .  S
C3954      C3955   1.414       .  A
C3955      C3956   1.407       .  A
C3955     Br3964   1.932       .  S
C3956     Br3960   1.931       .  S
C3965      C3966   1.418       .  A
C3965      C3970   1.422       .  A
C3966      C3967   1.421       .  A
C3966     Br3978   1.929       .  S
C3967      C3968   1.414       .  A
C3967     Br3982   1.927   1_655  S
C3968      C3971   1.505   1_655  S
C3968      C3969   1.407       .  A
C3969      C3970   1.412       .  A
C3969     Br3977   1.933       .  S
C3970     Br3981   1.933       .  S
C3971      C3972   1.413       .  A
C3971      C3976   1.408       .  A
C3972      C3973   1.419       .  A
C3972     Br3983   1.927   1_455  S
C3973      C3974   1.415       .  A
C3973     Br3979   1.928       .  S
C3974      C3975   1.419       .  A
C3975      C3976   1.413       .  A
C3975     Br3984   1.926       .  S
C3976     Br3980   1.932       .  S
C3985      C3986   1.407       .  A
C3985      C3990   1.410       .  A
C3986      C3987   1.408       .  A
C3986     Br3998   1.929       .  S
C3987      C3988   1.412       .  A
C3987     Br4002   1.929       .  S
C3988      C3991   1.485       .  S
C3988      C3989   1.408       .  A
C3989      C3990   1.406       .  A
C3989     Br3997   1.928   1_554  S
C3990     Br4001   1.932   1_554  S
C3991      C3992   1.409       .  A
C3991      C3996   1.410       .  A
C3992      C3993   1.408       .  A
C3992     Br4003   1.930       .  S
C3993      C3994   1.410       .  A
C3993     Br3999   1.927       .  S
C3994      C3995   1.408       .  A
C3995      C3996   1.408       .  A
C3995     Br4004   1.927       .  S
C3996     Br4000   1.929       .  S
C4005      C4006   1.418       .  A
C4005      C4010   1.418       .  A
C4006      C4007   1.409       .  A
C4006     Br4018   1.933       .  S
C4007      C4008   1.407       .  A
C4007     Br4022   1.933       .  S
C4008      C4011   1.487       .  S
C4008      C4009   1.408       .  A
C4009      C4010   1.410       .  A
C4009     Br4017   1.931       .  S
C4010     Br4021   1.932       .  S
C4011      C4012   1.407       .  A
C4011      C4016   1.412       .  A
C4012      C4013   1.405       .  A
C4012     Br4023   1.932       .  S
C4013      C4014   1.414       .  A
C4013     Br4019   1.930       .  S
C4014      C4015   1.408       .  A
C4015      C4016   1.411       .  A
C4015     Br4024   1.928       .  S
C4016     Br4020   1.928       .  S
C4025      C4026   1.412       .  A
C4025      C4030   1.413       .  A
C4026      C4027   1.403       .  A
C4026     Br4038   1.933       .  S
C4027      C4028   1.407       .  A
C4027     Br4042   1.930       .  S
C4028      C4031   1.474       .  S
C4028      C4029   1.407       .  A
C4029      C4030   1.403       .  A
C4029     Br4037   1.930       .  S
C4030     Br4041   1.932       .  S
C4031      C4032   1.409       .  A
C4031      C4036   1.403       .  A
C4032      C4033   1.408       .  A
C4032     Br4043   1.930       .  S
C4033      C4034   1.409       .  A
C4033     Br4039   1.928       .  S
C4034      C4035   1.418       .  A
C4035      C4036   1.402       .  A
C4035     Br4044   1.932       .  S
C4036     Br4040   1.934       .  S
C4045      C4046   1.412       .  A
C4045      C4050   1.413       .  A
C4046      C4047   1.410       .  A
C4046     Br4058   1.931       .  S
C4047      C4048   1.411       .  A
C4047     Br4062   1.930       .  S
C4048      C4051   1.494       .  S
C4048      C4049   1.410       .  A
C4049      C4050   1.411       .  A
C4049     Br4057   1.929       .  S
C4050     Br4061   1.931       .  S
C4051      C4052   1.409       .  A
C4051      C4056   1.409       .  A
C4052      C4053   1.410       .  A
C4052     Br4063   1.931       .  S
C4053      C4054   1.417       .  A
C4053     Br4059   1.933   1_556  S
C4054      C4055   1.418       .  A
C4055      C4056   1.413       .  A
C4055     Br4064   1.932       .  S
C4056     Br4060   1.930       .  S
C4065      C4066   1.408       .  A
C4065      C4070   1.410       .  A
C4066      C4067   1.412       .  A
C4066     Br4078   1.929       .  S
C4067      C4068   1.414       .  A
C4067     Br4082   1.927       .  S
C4068      C4071   1.497       .  S
C4068      C4069   1.411       .  A
C4069      C4070   1.410       .  A
C4069     Br4077   1.929       .  S
C4070     Br4081   1.930       .  S
C4071      C4072   1.410       .  A
C4071      C4076   1.413       .  A
C4072      C4073   1.411       .  A
C4072     Br4083   1.929       .  S
C4073      C4074   1.411       .  A
C4073     Br4079   1.929       .  S
C4074      C4075   1.411       .  A
C4075      C4076   1.414       .  A
C4075     Br4084   1.928       .  S
C4076     Br4080   1.929       .  S
C4085      C4086   1.416       .  A
C4085      C4090   1.414       .  A
C4086      C4087   1.415       .  A
C4086     Br4098   1.930       .  S
C4087      C4088   1.411       .  A
C4087     Br4102   1.929       .  S
C4088      C4091   1.498       .  S
C4088      C4089   1.410       .  A
C4089      C4090   1.412       .  A
C4089     Br4097   1.930       .  S
C4090     Br4101   1.930       .  S
C4091      C4092   1.410       .  A
C4091      C4096   1.409       .  A
C4092      C4093   1.413       .  A
C4092     Br4103   1.930       .  S
C4093      C4094   1.418       .  A
C4093     Br4099   1.932       .  S
C4094      C4095   1.417       .  A
C4095      C4096   1.413       .  A
C4095     Br4104   1.927       .  S
C4096     Br4100   1.930       .  S
C4105      C4106   1.407       .  A
C4105      C4110   1.409       .  A
C4106      C4107   1.410       .  A
C4106     Br4118   1.928       .  S
C4107      C4108   1.413       .  A
C4107     Br4122   1.928       .  S
C4108      C4111   1.488       .  S
C4108      C4109   1.408       .  A
C4109      C4110   1.407       .  A
C4109     Br4117   1.929       .  S
C4110     Br4121   1.929   1_554  S
C4111      C4112   1.408       .  A
C4111      C4116   1.413       .  A
C4112      C4113   1.407       .  A
C4112     Br4123   1.929       .  S
C4113      C4114   1.411       .  A
C4113     Br4119   1.931       .  S
C4114      C4115   1.408       .  A
C4115      C4116   1.411       .  A
C4115     Br4124   1.927       .  S
C4116     Br4120   1.928   1_554  S
C4125      C4126   1.411       .  A
C4125      C4130   1.410       .  A
C4126      C4127   1.405       .  A
C4126     Br4138   1.931       .  S
C4127      C4128   1.408       .  A
C4127     Br4142   1.931       .  S
C4128      C4131   1.485       .  S
C4128      C4129   1.411       .  A
C4129      C4130   1.410       .  A
C4129     Br4137   1.929       .  S
C4130     Br4141   1.929       .  S
C4131      C4132   1.405       .  A
C4131      C4136   1.409       .  A
C4132      C4133   1.406       .  A
C4132     Br4143   1.934       .  S
C4133      C4134   1.421       .  A
C4133     Br4139   1.935       .  S
C4134      C4135   1.414       .  A
C4135      C4136   1.411       .  A
C4135     Br4144   1.930       .  S
C4136     Br4140   1.929       .  S
C4145      C4146   1.415       .  A
C4145      C4150   1.414       .  A
C4146      C4147   1.407       .  A
C4146     Br4158   1.932       .  S
C4147      C4148   1.407       .  A
C4147     Br4162   1.931       .  S
C4148      C4151   1.481       .  S
C4148      C4149   1.408       .  A
C4149      C4150   1.407       .  A
C4149     Br4157   1.931       .  S
C4150     Br4161   1.931       .  S
C4151      C4152   1.405       .  A
C4151      C4156   1.410       .  A
C4152      C4153   1.403       .  A
C4152     Br4163   1.933       .  S
C4153      C4154   1.415       .  A
C4153     Br4159   1.933       .  S
C4154      C4155   1.409       .  A
C4155      C4156   1.409       .  A
C4155     Br4164   1.929       .  S
C4156     Br4160   1.928       .  S
C4165      C4166   1.414       .  A
C4165      C4170   1.414       .  A
C4166      C4167   1.409       .  A
C4166     Br4178   1.931       .  S
C4167      C4168   1.409       .  A
C4167     Br4182   1.929       .  S
C4168      C4171   1.489       .  S
C4168      C4169   1.409       .  A
C4169      C4170   1.409       .  A
C4169     Br4177   1.930       .  S
C4170     Br4181   1.931       .  S
C4171      C4172   1.406       .  A
C4171      C4176   1.408       .  A
C4172      C4173   1.409       .  A
C4172     Br4183   1.931       .  S
C4173      C4174   1.419       .  A
C4173     Br4179   1.933       .  S
C4174      C4175   1.417       .  A
C4175      C4176   1.412       .  A
C4175     Br4184   1.928       .  S
C4176     Br4180   1.931   1_556  S
C4185      C4186   1.411       .  A
C4185      C4190   1.418       .  A
C4186      C4187   1.414       .  A
C4186     Br4198   1.928       .  S
C4187      C4188   1.413       .  A
C4187     Br4202   1.928       .  S
C4188      C4191   1.497   1_655  S
C4188      C4189   1.408       .  A
C4189      C4190   1.410       .  A
C4189     Br4197   1.930       .  S
C4190     Br4201   1.931       .  S
C4191      C4192   1.408       .  A
C4191      C4196   1.406       .  A
C4192      C4193   1.416       .  A
C4192     Br4203   1.930   1_455  S
C4193      C4194   1.422       .  A
C4193     Br4199   1.931       .  S
C4194      C4195   1.425       .  A
C4195      C4196   1.413       .  A
C4195     Br4204   1.932       .  S
C4196     Br4200   1.933       .  S
C4205      C4206   1.410       .  A
C4205      C4210   1.407       .  A
C4206      C4207   1.407       .  A
C4206     Br4218   1.930       .  S
C4207      C4208   1.408       .  A
C4207     Br4222   1.930       .  S
C4208      C4211   1.487       .  S
C4208      C4209   1.412       .  A
C4209      C4210   1.410       .  A
C4209     Br4217   1.927       .  S
C4210     Br4221   1.928       .  S
C4211      C4212   1.412       .  A
C4211      C4216   1.407       .  A
C4212      C4213   1.411       .  A
C4212     Br4223   1.928       .  S
C4213      C4214   1.408       .  A
C4213     Br4219   1.928       .  S
C4214      C4215   1.410       .  A
C4215      C4216   1.406       .  A
C4215     Br4224   1.931       .  S
C4216     Br4220   1.929       .  S
C4225      C4226   1.410       .  A
C4225      C4230   1.413   1_556  A
C4226      C4227   1.405       .  A
C4226     Br4238   1.926       .  S
C4227      C4228   1.408       .  A
C4227     Br4242   1.931       .  S
C4228      C4231   1.482       .  S
C4228      C4229   1.408       .  A
C4229      C4230   1.408   1_556  A
C4229     Br4237   1.931   1_556  S
C4230     Br4241   1.930       .  S
C4231      C4232   1.409       .  A
C4231      C4236   1.409       .  A
C4232      C4233   1.405       .  A
C4232     Br4243   1.929       .  S
C4233      C4234   1.407       .  A
C4233     Br4239   1.930       .  S
C4234      C4235   1.411       .  A
C4235      C4236   1.407       .  A
C4235     Br4244   1.931       .  S
C4236     Br4240   1.930       .  S
C4245      C4246   1.416       .  A
C4245      C4250   1.413       .  A
C4246      C4247   1.406       .  A
C4246     Br4258   1.924       .  S
C4247      C4248   1.405       .  A
C4247     Br4262   1.933       .  S
C4248      C4251   1.482       .  S
C4248      C4249   1.409       .  A
C4249      C4250   1.409       .  A
C4249     Br4257   1.930       .  S
C4250     Br4261   1.930       .  S
C4251      C4252   1.407       .  A
C4251      C4256   1.408       .  A
C4252      C4253   1.407       .  A
C4252     Br4263   1.930       .  S
C4253      C4254   1.416       .  A
C4253     Br4259   1.932       .  S
C4254      C4255   1.411       .  A
C4255      C4256   1.405       .  A
C4255     Br4264   1.932   1_556  S
C4256     Br4260   1.930       .  S
C4265      C4266   1.412       .  A
C4265      C4270   1.416       .  A
C4266      C4267   1.411       .  A
C4266     Br4278   1.929       .  S
C4267      C4268   1.411       .  A
C4267     Br4282   1.928       .  S
C4268      C4271   1.490   1_455  S
C4268      C4269   1.408       .  A
C4269      C4270   1.406       .  A
C4269     Br4277   1.932       .  S
C4270     Br4281   1.934       .  S
C4271      C4272   1.406       .  A
C4271      C4276   1.410       .  A
C4272      C4273   1.407       .  A
C4272     Br4283   1.934       .  S
C4273      C4274   1.419       .  A
C4273     Br4279   1.930       .  S
C4274      C4275   1.415       .  A
C4275      C4276   1.413       .  A
C4275     Br4284   1.927       .  S
C4276     Br4280   1.929   1_655  S
C4285      C4286   1.405       .  A
C4285      C4290   1.410       .  A
C4286      C4287   1.407       .  A
C4286     Br4298   1.929       .  S
C4287      C4288   1.413       .  A
C4287     Br4302   1.930       .  S
C4288      C4291   1.486       .  S
C4288      C4289   1.409       .  A
C4289      C4290   1.408       .  A
C4289     Br4297   1.929       .  S
C4290     Br4301   1.930       .  S
C4291      C4292   1.410       .  A
C4291      C4296   1.410       .  A
C4292      C4293   1.410       .  A
C4292     Br4303   1.929       .  S
C4293      C4294   1.411       .  A
C4293     Br4299   1.930       .  S
C4294      C4295   1.407       .  A
C4295      C4296   1.405       .  A
C4295     Br4304   1.928       .  S
C4296     Br4300   1.930       .  S
C4305      C4306   1.417       .  A
C4305      C4310   1.417       .  A
C4306      C4307   1.410       .  A
C4306     Br4318   1.932       .  S
C4307      C4308   1.408       .  A
C4307     Br4322   1.932       .  S
C4308      C4311   1.490       .  S
C4308      C4309   1.408       .  A
C4309      C4310   1.411       .  A
C4309     Br4317   1.930       .  S
C4310     Br4321   1.931       .  S
C4311      C4312   1.406       .  A
C4311      C4316   1.411       .  A
C4312      C4313   1.407       .  A
C4312     Br4323   1.932       .  S
C4313      C4314   1.420       .  A
C4313     Br4319   1.936       .  S
C4314      C4315   1.414       .  A
C4315      C4316   1.412       .  A
C4315     Br4324   1.931       .  S
C4316     Br4320   1.929       .  S
C4325      C4326   1.417       .  A
C4325      C4330   1.411       .  A
C4326      C4327   1.404       .  A
C4326     Br4338   1.933       .  S
C4327      C4328   1.406       .  A
C4327     Br4342   1.933       .  S
C4328      C4331   1.485       .  S
C4328      C4329   1.412       .  A
C4329      C4330   1.410       .  A
C4329     Br4337   1.930       .  S
C4330     Br4341   1.929       .  S
C4331      C4332   1.406       .  A
C4331      C4336   1.412       .  A
C4332      C4333   1.405       .  A
C4332     Br4343   1.931       .  S
C4333      C4334   1.415       .  A
C4333     Br4339   1.933       .  S
C4334      C4335   1.414       .  A
C4335      C4336   1.410       .  A
C4335     Br4344   1.931   1_554  S
C4336     Br4340   1.931       .  S
C4345      C4346   1.414       .  A
C4345      C4350   1.413       .  A
C4346      C4347   1.411       .  A
C4346     Br4358   1.927       .  S
C4347      C4348   1.410       .  A
C4347     Br4362   1.930       .  S
C4348      C4351   1.486       .  S
C4348      C4349   1.407       .  A
C4349      C4350   1.407       .  A
C4349     Br4357   1.931       .  S
C4350     Br4361   1.931       .  S
C4351      C4352   1.408       .  A
C4351      C4356   1.409       .  A
C4352      C4353   1.407       .  A
C4352     Br4363   1.930       .  S
C4353      C4354   1.412       .  A
C4353     Br4359   1.930       .  S
C4354      C4355   1.412       .  A
C4355      C4356   1.409       .  A
C4355     Br4364   1.930       .  S
C4356     Br4360   1.929       .  S
C4365      C4366   1.418       .  A
C4365      C4370   1.416       .  A
C4366      C4367   1.411       .  A
C4366     Br4378   1.932       .  S
C4367      C4368   1.407       .  A
C4367     Br4382   1.931       .  S
C4368      C4371   1.490       .  S
C4368      C4369   1.409       .  A
C4369      C4370   1.412       .  A
C4369     Br4377   1.931       .  S
C4370     Br4381   1.929       .  S
C4371      C4372   1.410       .  A
C4371      C4376   1.410       .  A
C4372      C4373   1.409       .  A
C4372     Br4383   1.929       .  S
C4373      C4374   1.414       .  A
C4373     Br4379   1.933       .  S
C4374      C4375   1.412       .  A
C4375      C4376   1.409       .  A
C4375     Br4384   1.932       .  S
C4376     Br4380   1.929       .  S
C4385      C4386   1.416       .  A
C4385      C4390   1.418       .  A
C4386      C4387   1.415       .  A
C4386     Br4398   1.930       .  S
C4387      C4388   1.411       .  A
C4387     Br4402   1.929       .  S
C4388      C4391   1.495       .  S
C4388      C4389   1.407       .  A
C4389      C4390   1.409       .  A
C4389     Br4397   1.933       .  S
C4390     Br4401   1.931       .  S
C4391      C4392   1.413       .  A
C4391      C4396   1.406       .  A
C4392      C4393   1.415       .  A
C4392     Br4403   1.928       .  S
C4393      C4394   1.412       .  A
C4393     Br4399   1.928       .  S
C4394      C4395   1.417       .  A
C4395      C4396   1.407       .  A
C4395     Br4404   1.929       .  S
C4396     Br4400   1.932       .  S
C4405      C4406   1.421       .  A
C4405      C4410   1.412       .  A
C4406      C4407   1.407       .  A
C4406     Br4418   1.931       .  S
C4407      C4408   1.405       .  A
C4407     Br4422   1.934       .  S
C4408      C4411   1.490       .  S
C4408      C4409   1.412       .  A
C4409      C4410   1.414       .  A
C4409     Br4417   1.928       .  S
C4410     Br4421   1.927       .  S
C4411      C4412   1.407       .  A
C4411      C4416   1.409       .  A
C4412      C4413   1.409       .  A
C4412     Br4423   1.931       .  S
C4413      C4414   1.420       .  A
C4413     Br4419   1.933       .  S
C4414      C4415   1.413       .  A
C4415      C4416   1.411       .  A
C4415     Br4424   1.925       .  S
C4416     Br4420   1.930       .  S
C4425      C4426   1.415       .  A
C4425      C4430   1.413       .  A
C4426      C4427   1.409       .  A
C4426     Br4438   1.931       .  S
C4427      C4428   1.408       .  A
C4427     Br4442   1.931       .  S
C4428      C4431   1.485       .  S
C4428      C4429   1.408       .  A
C4429      C4430   1.409       .  A
C4429     Br4437   1.930       .  S
C4430     Br4441   1.930       .  S
C4431      C4432   1.407       .  A
C4431      C4436   1.410       .  A
C4432      C4433   1.406       .  A
C4432     Br4443   1.931       .  S
C4433      C4434   1.416       .  A
C4433     Br4439   1.933       .  S
C4434      C4435   1.411       .  A
C4435      C4436   1.409       .  A
C4435     Br4444   1.929       .  S
C4436     Br4440   1.929       .  S
C4445      C4446   1.412       .  A
C4445      C4450   1.414       .  A
C4446      C4447   1.408       .  A
C4446     Br4458   1.930       .  S
C4447      C4448   1.409       .  A
C4447     Br4462   1.930       .  S
C4448      C4451   1.486       .  S
C4448      C4449   1.408       .  A
C4449      C4450   1.408       .  A
C4449     Br4457   1.930       .  S
C4450     Br4461   1.932       .  S
C4451      C4452   1.410       .  A
C4451      C4456   1.405       .  A
C4452      C4453   1.412       .  A
C4452     Br4463   1.928       .  S
C4453      C4454   1.412       .  A
C4453     Br4459   1.929       .  S
C4454      C4455   1.420       .  A
C4455      C4456   1.405       .  A
C4455     Br4464   1.933       .  S
C4456     Br4460   1.934       .  S
C4465      C4466   1.416       .  A
C4465      C4470   1.409       .  A
C4466      C4467   1.403       .  A
C4466     Br4478   1.932       .  S
C4467      C4468   1.405       .  A
C4467     Br4482   1.933       .  S
C4468      C4471   1.478       .  S
C4468      C4469   1.408       .  A
C4469      C4470   1.407       .  A
C4469     Br4477   1.929       .  S
C4470     Br4481   1.925       .  S
C4471      C4472   1.404       .  A
C4471      C4476   1.408       .  A
C4472      C4473   1.402       .  A
C4472     Br4483   1.933       .  S
C4473      C4474   1.417       .  A
C4473     Br4479   1.933       .  S
C4474      C4475   1.413       .  A
C4475      C4476   1.409       .  A
C4475     Br4484   1.929       .  S
C4476     Br4480   1.930       .  S
C4485      C4486   1.412       .  A
C4485      C4490   1.412       .  A
C4486      C4487   1.408       .  A
C4486     Br4498   1.926       .  S
C4487      C4488   1.408       .  A
C4487     Br4502   1.930       .  S
C4488      C4491   1.476       .  S
C4488      C4489   1.406       .  A
C4489      C4490   1.400       .  A
C4489     Br4497   1.933       .  S
C4490     Br4501   1.934       .  S
C4491      C4492   1.409       .  A
C4491      C4496   1.404       .  A
C4492      C4493   1.407       .  A
C4492     Br4503   1.931       .  S
C4493      C4494   1.411       .  A
C4493     Br4499   1.928       .  S
C4494      C4495   1.417       .  A
C4495      C4496   1.403       .  A
C4495     Br4504   1.933       .  S
C4496     Br4500   1.933       .  S
C4505      C4506   1.415       .  A
C4505      C4510   1.418       .  A
C4506      C4507   1.410       .  A
C4506     Br4518   1.928       .  S
C4507      C4508   1.407       .  A
C4507     Br4522   1.929       .  S
C4508      C4511   1.480       .  S
C4508      C4509   1.405       .  A
C4509      C4510   1.404       .  A
C4509     Br4517   1.935       .  S
C4510     Br4521   1.931       .  S
C4511      C4512   1.409       .  A
C4511      C4516   1.405       .  A
C4512      C4513   1.408       .  A
C4512     Br4523   1.928       .  S
C4513      C4514   1.411       .  A
C4513     Br4519   1.931       .  S
C4514      C4515   1.416       .  A
C4515      C4516   1.403       .  A
C4515     Br4524   1.932       .  S
C4516     Br4520   1.933       .  S
C4525      C4526   1.413       .  A
C4525      C4530   1.420       .  A
C4526      C4527   1.411       .  A
C4526     Br4538   1.930       .  S
C4527      C4528   1.410       .  A
C4527     Br4542   1.929       .  S
C4528      C4531   1.483       .  S
C4528      C4529   1.404       .  A
C4529      C4530   1.404       .  A
C4529     Br4537   1.934       .  S
C4530     Br4541   1.935       .  S
C4531      C4532   1.410       .  A
C4531      C4536   1.408       .  A
C4532      C4533   1.407       .  A
C4532     Br4543   1.931       .  S
C4533      C4534   1.409       .  A
C4533     Br4539   1.929       .  S
C4534      C4535   1.412       .  A
C4535      C4536   1.407       .  A
C4535     Br4544   1.930   1_556  S
C4536     Br4540   1.929       .  S
C4545      C4546   1.419       .  A
C4545      C4550   1.413       .  A
C4546      C4547   1.405       .  A
C4546     Br4558   1.934       .  S
C4547      C4548   1.406       .  A
C4547     Br4562   1.934       .  S
C4548      C4551   1.485       .  S
C4548      C4549   1.410       .  A
C4549      C4550   1.411       .  A
C4549     Br4557   1.928       .  S
C4550     Br4561   1.930       .  S
C4551      C4552   1.410       .  A
C4551      C4556   1.409       .  A
C4552      C4553   1.408       .  A
C4552     Br4563   1.929       .  S
C4553      C4554   1.411       .  A
C4553     Br4559   1.931       .  S
C4554      C4555   1.410       .  A
C4555      C4556   1.406       .  A
C4555     Br4564   1.930       .  S
C4556     Br4560   1.929       .  S
C4565      C4566   1.412       .  A
C4565      C4570   1.415       .  A
C4566      C4567   1.412       .  A
C4566     Br4578   1.927   1_554  S
C4567      C4568   1.411       .  A
C4567     Br4582   1.929       .  S
C4568      C4571   1.486       .  S
C4568      C4569   1.407       .  A
C4569      C4570   1.405       .  A
C4569     Br4577   1.933       .  S
C4570     Br4581   1.932       .  S
C4571      C4572   1.410       .  A
C4571      C4576   1.407       .  A
C4572      C4573   1.410       .  A
C4572     Br4583   1.928       .  S
C4573      C4574   1.412       .  A
C4573     Br4579   1.929       .  S
C4574      C4575   1.416       .  A
C4575      C4576   1.404       .  A
C4575     Br4584   1.935       .  S
C4576     Br4580   1.933       .  S
C4585      C4586   1.418   1_545  A
C4585      C4590   1.415       .  A
C4586      C4587   1.406       .  A
C4586     Br4598   1.932       .  S
C4587      C4588   1.405   1_565  A
C4587     Br4602   1.933       .  S
C4588      C4591   1.482       .  S
C4588      C4589   1.408       .  A
C4589      C4590   1.409       .  A
C4589     Br4597   1.931       .  S
C4590     Br4601   1.930       .  S
C4591      C4592   1.403   1_545  A
C4591      C4596   1.410       .  A
C4592      C4593   1.404       .  A
C4592     Br4603   1.934       .  S
C4593      C4594   1.422       .  A
C4593     Br4599   1.936       .  S
C4594      C4595   1.413   1_565  A
C4595      C4596   1.410       .  A
C4595     Br4604   1.930       .  S
C4596     Br4600   1.929       .  S
C4605      C4606   1.415       .  A
C4605      C4610   1.413       .  A
C4606      C4607   1.409       .  A
C4606     Br4618   1.932       .  S
C4607      C4608   1.408       .  A
C4607     Br4622   1.930       .  S
C4608      C4611   1.489       .  S
C4608      C4609   1.409       .  A
C4609      C4610   1.409       .  A
C4609     Br4617   1.929       .  S
C4610     Br4621   1.930       .  S
C4611      C4612   1.407       .  A
C4611      C4616   1.410       .  A
C4612      C4613   1.407       .  A
C4612     Br4623   1.931       .  S
C4613      C4614   1.413       .  A
C4613     Br4619   1.927       .  S
C4614      C4615   1.416       .  A
C4615      C4616   1.412       .  A
C4615     Br4624   1.930       .  S
C4616     Br4620   1.929       .  S
C4625      C4626   1.413   1_545  A
C4625      C4630   1.417       .  A
C4626      C4627   1.412       .  A
C4626     Br4638   1.930       .  S
C4627      C4628   1.410   1_565  A
C4627     Br4642   1.928       .  S
C4628      C4631   1.488       .  S
C4628      C4629   1.406       .  A
C4629      C4630   1.405       .  A
C4629     Br4637   1.933       .  S
C4630     Br4641   1.933       .  S
C4631      C4632   1.404       .  A
C4631      C4636   1.409   1_545  A
C4632      C4633   1.408       .  A
C4632     Br4643   1.933       .  S
C4633      C4634   1.423       .  A
C4633     Br4639   1.933       .  S
C4634      C4635   1.416   1_545  A
C4635      C4636   1.413       .  A
C4635     Br4644   1.929       .  S
C4636     Br4640   1.930       .  S
C4645      C4646   1.410       .  A
C4645      C4650   1.415       .  A
C4646      C4647   1.410       .  A
C4646     Br4658   1.930   1_545  S
C4647      C4648   1.411       .  A
C4647     Br4662   1.928   1_545  S
C4648      C4651   1.483       .  S
C4648      C4649   1.406       .  A
C4649      C4650   1.403       .  A
C4649     Br4657   1.932       .  S
C4650     Br4661   1.933       .  S
C4651      C4652   1.407   1_545  A
C4651      C4656   1.408       .  A
C4652      C4653   1.405       .  A
C4652     Br4663   1.930       .  S
C4653      C4654   1.412   1_565  A
C4653     Br4659   1.931   1_556  S
C4654      C4655   1.416       .  A
C4655      C4656   1.409       .  A
C4655     Br4664   1.932   1_556  S
C4656     Br4660   1.931       .  S
C4665      C4666   1.415   1_545  A
C4665      C4670   1.410       .  A
C4666      C4667   1.403       .  A
C4666     Br4678   1.932       .  S
C4667      C4668   1.406   1_565  A
C4667     Br4682   1.932       .  S
C4668      C4671   1.484       .  S
C4668      C4669   1.412       .  A
C4669      C4670   1.410       .  A
C4669     Br4677   1.930       .  S
C4670     Br4681   1.929       .  S
C4671      C4672   1.408       .  A
C4671      C4676   1.407   1_545  A
C4672      C4673   1.408       .  A
C4672     Br4683   1.931       .  S
C4673      C4674   1.416       .  A
C4673     Br4679   1.933       .  S
C4674      C4675   1.415   1_545  A
C4675      C4676   1.406       .  A
C4675     Br4684   1.929       .  S
C4676     Br4680   1.932       .  S
C4685      C4686   1.407       .  A
C4685      C4690   1.408       .  A
C4686      C4687   1.406       .  A
C4686     Br4698   1.929       .  S
C4687      C4688   1.410       .  A
C4687     Br4702   1.929       .  S
C4688      C4691   1.480       .  S
C4688      C4689   1.409       .  A
C4689      C4690   1.405       .  A
C4689     Br4697   1.928       .  S
C4690     Br4701   1.931   1_554  S
C4691      C4692   1.408       .  A
C4691      C4696   1.409       .  A
C4692      C4693   1.406       .  A
C4692     Br4703   1.930       .  S
C4693      C4694   1.409       .  A
C4693     Br4699   1.930       .  S
C4694      C4695   1.409       .  A
C4695      C4696   1.406       .  A
C4695     Br4704   1.929       .  S
C4696     Br4700   1.929       .  S
C4705      C4706   1.418   1_545  A
C4705      C4710   1.423       .  A
C4706      C4707   1.411       .  A
C4706     Br4718   1.928       .  S
C4707      C4708   1.407   1_565  A
C4707     Br4722   1.931       .  S
C4708      C4711   1.489       .  S
C4708      C4709   1.405       .  A
C4709      C4710   1.409       .  A
C4709     Br4717   1.932       .  S
C4710     Br4721   1.930       .  S
C4711      C4712   1.405       .  A
C4711      C4716   1.411       .  A
C4712      C4713   1.406       .  A
C4712     Br4723   1.933       .  S
C4713      C4714   1.420       .  A
C4713     Br4719   1.934       .  S
C4714      C4715   1.412       .  A
C4715      C4716   1.413       .  A
C4715     Br4724   1.928   1_545  S
C4716     Br4720   1.928   1_545  S
C4725      C4726   1.411       .  A
C4725      C4730   1.413       .  A
C4726      C4727   1.408       .  A
C4726     Br4738   1.930   1_554  S
C4727      C4728   1.409       .  A
C4727     Br4742   1.931       .  S
C4728      C4731   1.489       .  S
C4728      C4729   1.410       .  A
C4729      C4730   1.410       .  A
C4729     Br4737   1.929       .  S
C4730     Br4741   1.929       .  S
C4731      C4732   1.411       .  A
C4731      C4736   1.410       .  A
C4732      C4733   1.409       .  A
C4732     Br4743   1.930       .  S
C4733      C4734   1.409       .  A
C4733     Br4739   1.928       .  S
C4734      C4735   1.410       .  A
C4735      C4736   1.409       .  A
C4735     Br4744   1.930       .  S
C4736     Br4740   1.928       .  S
C4745      C4746   1.417   1_565  A
C4745      C4750   1.417       .  A
C4746      C4747   1.410       .  A
C4746     Br4758   1.928   1_554  S
C4747      C4748   1.407       .  A
C4747     Br4762   1.930       .  S
C4748      C4751   1.485       .  S
C4748      C4749   1.407   1_545  A
C4749      C4750   1.406       .  A
C4749     Br4757   1.933       .  S
C4750     Br4761   1.933       .  S
C4751      C4752   1.409       .  A
C4751      C4756   1.405   1_545  A
C4752      C4753   1.412       .  A
C4752     Br4763   1.929       .  S
C4753      C4754   1.416       .  A
C4753     Br4759   1.930       .  S
C4754      C4755   1.419   1_545  A
C4755      C4756   1.405       .  A
C4755     Br4764   1.935       .  S
C4756     Br4760   1.933   1_554  S
C4765      C4766   1.418   1_545  A
C4765      C4770   1.416       .  A
C4766      C4767   1.406       .  A
C4766     Br4778   1.930       .  S
C4767      C4768   1.405   1_565  A
C4767     Br4782   1.932       .  S
C4768      C4771   1.483       .  S
C4768      C4769   1.408       .  A
C4769      C4770   1.409       .  A
C4769     Br4777   1.930       .  S
C4770     Br4781   1.931       .  S
C4771      C4772   1.405   1_545  A
C4771      C4776   1.410       .  A
C4772      C4773   1.404       .  A
C4772     Br4783   1.935       .  S
C4773      C4774   1.418       .  A
C4773     Br4779   1.931       .  S
C4774      C4775   1.409   1_565  A
C4775      C4776   1.411       .  A
C4775     Br4784   1.928       .  S
C4776     Br4780   1.927       .  S
C4785      C4786   1.415   1_545  A
C4785      C4790   1.414       .  A
C4786      C4787   1.407       .  A
C4786     Br4798   1.934       .  S
C4787      C4788   1.410   1_565  A
C4787     Br4802   1.932       .  S
C4788      C4791   1.487       .  S
C4788      C4789   1.409       .  A
C4789      C4790   1.408       .  A
C4789     Br4797   1.931       .  S
C4790     Br4801   1.931       .  S
C4791      C4792   1.411       .  A
C4791      C4796   1.407   1_545  A
C4792      C4793   1.409       .  A
C4792     Br4803   1.930       .  S
C4793      C4794   1.412       .  A
C4793     Br4799   1.930       .  S
C4794      C4795   1.419   1_545  A
C4795      C4796   1.407       .  A
C4795     Br4804   1.934       .  S
C4796     Br4800   1.934       .  S
C4805      C4806   1.410   1_545  A
C4805      C4810   1.412       .  A
C4806      C4807   1.408       .  A
C4806     Br4818   1.930       .  S
C4807      C4808   1.410   1_565  A
C4807     Br4822   1.930       .  S
C4808      C4811   1.487       .  S
C4808      C4809   1.409       .  A
C4809      C4810   1.408       .  A
C4809     Br4817   1.929       .  S
C4810     Br4821   1.931       .  S
C4811      C4812   1.409   1_545  A
C4811      C4816   1.406       .  A
C4812      C4813   1.410   1_565  A
C4812     Br4823   1.928       .  S
C4813      C4814   1.412       .  A
C4813     Br4819   1.930   1_545  S
C4814      C4815   1.421       .  A
C4815      C4816   1.407       .  A
C4815     Br4824   1.936       .  S
C4816     Br4820   1.933       .  S
C4825      C4826   1.417       .  A
C4825      C4830   1.420       .  A
C4826      C4827   1.409       .  A
C4826     Br4838   1.929       .  S
C4827      C4828   1.408       .  A
C4827     Br4842   1.932       .  S
C4828      C4831   1.487       .  S
C4828      C4829   1.407       .  A
C4829      C4830   1.409       .  A
C4829     Br4837   1.932       .  S
C4830     Br4841   1.934       .  S
C4831      C4832   1.410       .  A
C4831      C4836   1.410       .  A
C4832      C4833   1.408       .  A
C4832     Br4843   1.930       .  S
C4833      C4834   1.411       .  A
C4833     Br4839   1.931       .  S
C4834      C4835   1.409       .  A
C4835      C4836   1.407       .  A
C4835     Br4844   1.928       .  S
C4836     Br4840   1.930       .  S
C4845      C4846   1.419       .  A
C4845      C4850   1.412   1_545  A
C4846      C4847   1.407       .  A
C4846     Br4858   1.934       .  S
C4847      C4848   1.405       .  A
C4847     Br4862   1.931       .  S
C4848      C4851   1.480       .  S
C4848      C4849   1.408       .  A
C4849      C4850   1.406   1_545  A
C4849     Br4857   1.930   1_545  S
C4850     Br4861   1.929       .  S
C4851      C4852   1.408   1_545  A
C4851      C4856   1.404       .  A
C4852      C4853   1.407       .  A
C4852     Br4863   1.932       .  S
C4853      C4854   1.413   1_565  A
C4853     Br4859   1.931       .  S
C4854      C4855   1.420       .  A
C4855      C4856   1.406       .  A
C4855     Br4864   1.935       .  S
C4856     Br4860   1.931       .  S
C4865      C4866   1.410       .  A
C4865      C4870   1.412       .  A
C4866      C4867   1.414       .  A
C4866     Br4878   1.926       .  S
C4867      C4868   1.413       .  A
C4867     Br4882   1.929       .  S
C4868      C4871   1.485       .  S
C4868      C4869   1.405       .  A
C4869      C4870   1.400       .  A
C4869     Br4877   1.935       .  S
C4870     Br4881   1.923       .  S
C4871      C4872   1.403       .  A
C4871      C4876   1.405       .  A
C4872      C4873   1.410       .  A
C4872     Br4883   1.936       .  S
C4873      C4874   1.430       .  A
C4873     Br4879   1.932       .  S
C4874      C4875   1.427       .  A
C4875      C4876   1.408       .  A
C4875     Br4884   1.938       .  S
C4876     Br4880   1.934       .  S
C4885      C4886   1.411       .  A
C4885      C4890   1.415       .  A
C4886      C4887   1.414       .  A
C4886     Br4898   1.928       .  S
C4887      C4888   1.413       .  A
C4887     Br4902   1.928       .  S
C4888      C4891   1.493       .  S
C4888      C4889   1.407       .  A
C4889      C4890   1.408       .  A
C4889     Br4897   1.931       .  S
C4890     Br4901   1.932       .  S
C4891      C4892   1.409       .  A
C4891      C4896   1.410       .  A
C4892      C4893   1.409       .  A
C4892     Br4903   1.931       .  S
C4893      C4894   1.414       .  A
C4893     Br4899   1.930       .  S
C4894      C4895   1.415       .  A
C4895      C4896   1.413       .  A
C4895     Br4904   1.930       .  S
C4896     Br4900   1.929       .  S
C4905      C4906   1.419       .  A
C4905      C4910   1.420       .  A
C4906      C4907   1.408       .  A
C4906     Br4918   1.933       .  S
C4907      C4908   1.406       .  A
C4907     Br4922   1.930       .  S
C4908      C4911   1.484       .  S
C4908      C4909   1.409       .  A
C4909      C4910   1.407       .  A
C4909     Br4917   1.936       .  S
C4910     Br4921   1.934       .  S
C4911      C4912   1.404       .  A
C4911      C4916   1.412       .  A
C4912      C4913   1.401       .  A
C4912     Br4923   1.935       .  S
C4913      C4914   1.417       .  A
C4913     Br4919   1.933       .  S
C4914      C4915   1.411       .  A
C4915      C4916   1.412       .  A
C4915     Br4924   1.929       .  S
C4916     Br4920   1.927       .  S
C4925      C4926   1.410       .  A
C4925      C4930   1.409       .  A
C4926      C4927   1.408       .  A
C4926     Br4938   1.931       .  S
C4927      C4928   1.409       .  A
C4927     Br4942   1.928       .  S
C4928      C4931   1.483       .  S
C4928      C4929   1.408       .  A
C4929      C4930   1.405       .  A
C4929     Br4937   1.930       .  S
C4930     Br4941   1.930       .  S
C4931      C4932   1.406       .  A
C4931      C4936   1.410       .  A
C4932      C4933   1.407       .  A
C4932     Br4943   1.931       .  S
C4933      C4934   1.417       .  A
C4933     Br4939   1.933       .  S
C4934      C4935   1.409       .  A
C4935      C4936   1.407       .  A
C4935     Br4944   1.926       .  S
C4936     Br4940   1.930       .  S
C4945      C4946   1.418       .  A
C4945      C4950   1.415       .  A
C4946      C4947   1.408       .  A
C4946     Br4958   1.935       .  S
C4947      C4948   1.408       .  A
C4947     Br4962   1.932       .  S
C4948      C4951   1.488   1_554  S
C4948      C4949   1.408       .  A
C4949      C4950   1.410       .  A
C4949     Br4957   1.930   1_554  S
C4950     Br4961   1.931       .  S
C4951      C4952   1.410       .  A
C4951      C4956   1.407       .  A
C4952      C4953   1.410       .  A
C4952     Br4963   1.929       .  S
C4953      C4954   1.411       .  A
C4953     Br4959   1.927       .  S
C4954      C4955   1.418       .  A
C4955      C4956   1.408       .  A
C4955     Br4964   1.934       .  S
C4956     Br4960   1.932       .  S
C4965      C4966   1.411       .  A
C4965      C4970   1.408       .  A
C4966      C4967   1.408       .  A
C4966     Br4978   1.930       .  S
C4967      C4968   1.409       .  A
C4967     Br4982   1.928       .  S
C4968      C4971   1.484       .  S
C4968      C4969   1.409       .  A
C4969      C4970   1.406       .  A
C4969     Br4977   1.930       .  S
C4970     Br4981   1.929       .  S
C4971      C4972   1.404       .  A
C4971      C4976   1.410       .  A
C4972      C4973   1.405       .  A
C4972     Br4983   1.934       .  S
C4973      C4974   1.422       .  A
C4973     Br4979   1.937       .  S
C4974      C4975   1.412       .  A
C4975      C4976   1.411       .  A
C4975     Br4984   1.929       .  S
C4976     Br4980   1.928       .  S
C4985      C4986   1.418       .  A
C4985      C4990   1.414       .  A
C4986      C4987   1.405       .  A
C4986     Br4998   1.933       .  S
C4987      C4988   1.406       .  A
C4987     Br5002   1.932   1_556  S
C4988      C4991   1.489       .  S
C4988      C4989   1.411       .  A
C4989      C4990   1.413       .  A
C4989     Br4997   1.929       .  S
C4990     Br5001   1.928       .  S
C4991      C4992   1.407       .  A
C4991      C4996   1.411   1_556  A
C4992      C4993   1.409       .  A
C4992     Br5003   1.932       .  S
C4993      C4994   1.420   1_556  A
C4993     Br4999   1.933       .  S
C4994      C4995   1.412       .  A
C4995      C4996   1.411       .  A
C4995     Br5004   1.928       .  S
C4996     Br5000   1.931       .  S
C5005      C5006   1.411       .  A
C5005      C5010   1.407       .  A
C5006      C5007   1.407       .  A
C5006     Br5018   1.931       .  S
C5007      C5008   1.408       .  A
C5007     Br5022   1.929       .  S
C5008      C5011   1.487       .  S
C5008      C5009   1.412       .  A
C5009      C5010   1.409       .  A
C5009     Br5017   1.928   1_556  S
C5010     Br5021   1.926       .  S
C5011      C5012   1.409       .  A
C5011      C5016   1.411       .  A
C5012      C5013   1.409       .  A
C5012     Br5023   1.928       .  S
C5013      C5014   1.410       .  A
C5013     Br5019   1.929       .  S
C5014      C5015   1.407       .  A
C5015      C5016   1.409       .  A
C5015     Br5024   1.927       .  S
C5016     Br5020   1.930       .  S
C5025      C5026   1.417       .  A
C5025      C5030   1.411       .  A
C5026      C5027   1.408       .  A
C5026     Br5038   1.934       .  S
C5027      C5028   1.407       .  A
C5027     Br5042   1.930       .  S
C5028      C5031   1.484       .  S
C5028      C5029   1.409       .  A
C5029      C5030   1.407       .  A
C5029     Br5037   1.930       .  S
C5030     Br5041   1.930       .  S
C5031      C5032   1.407       .  A
C5031      C5036   1.407       .  A
C5032      C5033   1.407       .  A
C5032     Br5043   1.931       .  S
C5033      C5034   1.415       .  A
C5033     Br5039   1.933       .  S
C5034      C5035   1.417       .  A
C5035      C5036   1.408       .  A
C5035     Br5044   1.933       .  S
C5036     Br5040   1.930       .  S
C5045      C5046   1.410       .  A
C5045      C5050   1.417       .  A
C5046      C5047   1.413       .  A
C5046     Br5058   1.929       .  S
C5047      C5048   1.413       .  A
C5047     Br5062   1.928       .  S
C5048      C5051   1.486       .  S
C5048      C5049   1.405       .  A
C5049      C5050   1.402       .  A
C5049     Br5057   1.934       .  S
C5050     Br5061   1.933       .  S
C5051      C5052   1.405       .  A
C5051      C5056   1.410       .  A
C5052      C5053   1.407       .  A
C5052     Br5063   1.933       .  S
C5053      C5054   1.421       .  A
C5053     Br5059   1.932       .  S
C5054      C5055   1.415       .  A
C5055      C5056   1.411       .  A
C5055     Br5064   1.930       .  S
C5056     Br5060   1.930       .  S
C5065      C5066   1.414       .  A
C5065      C5070   1.412       .  A
C5066      C5067   1.408       .  A
C5066     Br5078   1.932       .  S
C5067      C5068   1.408       .  A
C5067     Br5082   1.930       .  S
C5068      C5071   1.497       .  S
C5068      C5069   1.415       .  A
C5069      C5070   1.416       .  A
C5069     Br5077   1.928       .  S
C5070     Br5081   1.928       .  S
C5071      C5072   1.411       .  A
C5071      C5076   1.410       .  A
C5072      C5073   1.414       .  A
C5072     Br5083   1.929       .  S
C5073      C5074   1.415       .  A
C5073     Br5079   1.929       .  S
C5074      C5075   1.415       .  A
C5075      C5076   1.411       .  A
C5075     Br5084   1.932       .  S
C5076     Br5080   1.930       .  S
C5085      C5086   1.412       .  A
C5085      C5090   1.414       .  A
C5086      C5087   1.406       .  A
C5086     Br5098   1.931       .  S
C5087      C5088   1.408       .  A
C5087     Br5102   1.931       .  S
C5088      C5091   1.479       .  S
C5088      C5089   1.407       .  A
C5089      C5090   1.405       .  A
C5089     Br5097   1.931       .  S
C5090     Br5101   1.932       .  S
C5091      C5092   1.404       .  A
C5091      C5096   1.409       .  A
C5092      C5093   1.402       .  A
C5092     Br5103   1.932       .  S
C5093      C5094   1.418       .  A
C5093     Br5099   1.936       .  S
C5094      C5095   1.414       .  A
C5095      C5096   1.408       .  A
C5095     Br5104   1.931       .  S
C5096     Br5100   1.930       .  S
C5105      C5106   1.409       .  A
C5105      C5110   1.415       .  A
C5106      C5107   1.408       .  A
C5106     Br5118   1.930       .  S
C5107      C5108   1.410       .  A
C5107     Br5122   1.929       .  S
C5108      C5111   1.487       .  S
C5108      C5109   1.409       .  A
C5109      C5110   1.408       .  A
C5109     Br5117   1.930       .  S
C5110     Br5121   1.933       .  S
C5111      C5112   1.410       .  A
C5111      C5116   1.406       .  A
C5112      C5113   1.412       .  A
C5112     Br5123   1.930       .  S
C5113      C5114   1.414       .  A
C5113     Br5119   1.929       .  S
C5114      C5115   1.417       .  A
C5115      C5116   1.406       .  A
C5115     Br5124   1.934       .  S
C5116     Br5120   1.933       .  S
C5125      C5126   1.412       .  A
C5125      C5130   1.416       .  A
C5126      C5127   1.409       .  A
C5126     Br5138   1.929       .  S
C5127      C5128   1.410       .  A
C5127     Br5142   1.930       .  S
C5128      C5131   1.482       .  S
C5128      C5129   1.406       .  A
C5129      C5130   1.404       .  A
C5129     Br5137   1.932       .  S
C5130     Br5141   1.935       .  S
C5131      C5132   1.410       .  A
C5131      C5136   1.405       .  A
C5132      C5133   1.412       .  A
C5132     Br5143   1.930       .  S
C5133      C5134   1.414       .  A
C5133     Br5139   1.928       .  S
C5134      C5135   1.415       .  A
C5135      C5136   1.402       .  A
C5135     Br5144   1.933       .  S
C5136     Br5140   1.934       .  S
C5145      C5146   1.420   1_554  A
C5145      C5150   1.412       .  A
C5146      C5147   1.406       .  A
C5146     Br5158   1.931       .  S
C5147      C5148   1.406       .  A
C5147     Br5162   1.935       .  S
C5148      C5151   1.496       .  S
C5148      C5149   1.414   1_556  A
C5149      C5150   1.417       .  A
C5149     Br5157   1.927       .  S
C5150     Br5161   1.927       .  S
C5151      C5152   1.409       .  A
C5151      C5156   1.408       .  A
C5152      C5153   1.412       .  A
C5152     Br5163   1.934       .  S
C5153      C5154   1.424       .  A
C5153     Br5159   1.933       .  S
C5154      C5155   1.423       .  A
C5155      C5156   1.413       .  A
C5155     Br5164   1.934       .  S
C5156     Br5160   1.931       .  S
C5165      C5166   1.406       .  A
C5165      C5170   1.411       .  A
C5166      C5167   1.408       .  A
C5166     Br5178   1.927       .  S
C5167      C5168   1.412       .  A
C5167     Br5182   1.930   1_556  S
C5168      C5171   1.486       .  S
C5168      C5169   1.408       .  A
C5169      C5170   1.408       .  A
C5169     Br5177   1.929       .  S
C5170     Br5181   1.930       .  S
C5171      C5172   1.410       .  A
C5171      C5176   1.409       .  A
C5172      C5173   1.407       .  A
C5172     Br5183   1.930       .  S
C5173      C5174   1.407       .  A
C5173     Br5179   1.928       .  S
C5174      C5175   1.409       .  A
C5175      C5176   1.408       .  A
C5175     Br5184   1.931       .  S
C5176     Br5180   1.928       .  S
C5185      C5186   1.411       .  A
C5185      C5190   1.412       .  A
C5186      C5187   1.408       .  A
C5186     Br5198   1.929       .  S
C5187      C5188   1.409       .  A
C5187     Br5202   1.929       .  S
C5188      C5191   1.484       .  S
C5188      C5189   1.408       .  A
C5189      C5190   1.407       .  A
C5189     Br5197   1.930       .  S
C5190     Br5201   1.932       .  S
C5191      C5192   1.407       .  A
C5191      C5196   1.408       .  A
C5192      C5193   1.408       .  A
C5192     Br5203   1.930       .  S
C5193      C5194   1.415       .  A
C5193     Br5199   1.931       .  S
C5194      C5195   1.410       .  A
C5195      C5196   1.407       .  A
C5195     Br5204   1.922       .  S
C5196     Br5200   1.930       .  S
C5205      C5206   1.416       .  A
C5205      C5210   1.411       .  A
C5206      C5207   1.404       .  A
C5206     Br5218   1.933       .  S
C5207      C5208   1.405       .  A
C5207     Br5222   1.932       .  S
C5208      C5211   1.481       .  S
C5208      C5209   1.409       .  A
C5209      C5210   1.408       .  A
C5209     Br5217   1.929       .  S
C5210     Br5221   1.929       .  S
C5211      C5212   1.404       .  A
C5211      C5216   1.408       .  A
C5212      C5213   1.404       .  A
C5212     Br5223   1.934       .  S
C5213      C5214   1.419       .  A
C5213     Br5219   1.931       .  S
C5214      C5215   1.415       .  A
C5215      C5216   1.410       .  A
C5215     Br5224   1.928       .  S
C5216     Br5220   1.930       .  S
C5225      C5226   1.413       .  A
C5225      C5230   1.413       .  A
C5226      C5227   1.408       .  A
C5226     Br5238   1.929       .  S
C5227      C5228   1.408       .  A
C5227     Br5242   1.932       .  S
C5228      C5231   1.485       .  S
C5228      C5229   1.408       .  A
C5229      C5230   1.409       .  A
C5229     Br5237   1.928       .  S
C5230     Br5241   1.931       .  S
C5231      C5232   1.411       .  A
C5231      C5236   1.406       .  A
C5232      C5233   1.410       .  A
C5232     Br5243   1.929       .  S
C5233      C5234   1.412       .  A
C5233     Br5239   1.930       .  S
C5234      C5235   1.416       .  A
C5235      C5236   1.405       .  A
C5235     Br5244   1.934       .  S
C5236     Br5240   1.931       .  S
C5245      C5246   1.411       .  A
C5245      C5250   1.415       .  A
C5246      C5247   1.409       .  A
C5246     Br5258   1.930       .  S
C5247      C5248   1.409       .  A
C5247     Br5262   1.928       .  S
C5248      C5251   1.484       .  S
C5248      C5249   1.408       .  A
C5249      C5250   1.406       .  A
C5249     Br5257   1.932       .  S
C5250     Br5261   1.933       .  S
C5251      C5252   1.407       .  A
C5251      C5256   1.409       .  A
C5252      C5253   1.406       .  A
C5252     Br5263   1.931       .  S
C5253      C5254   1.413       .  A
C5253     Br5259   1.933       .  S
C5254      C5255   1.414       .  A
C5255      C5256   1.409       .  A
C5255     Br5264   1.932       .  S
C5256     Br5260   1.930       .  S
C5265      C5266   1.416       .  A
C5265      C5270   1.415       .  A
C5266      C5267   1.408       .  A
C5266     Br5278   1.926       .  S
C5267      C5268   1.407       .  A
C5267     Br5282   1.932       .  S
C5268      C5271   1.483       .  S
C5268      C5269   1.406       .  A
C5269      C5270   1.407       .  A
C5269     Br5277   1.930       .  S
C5270     Br5281   1.932       .  S
C5271      C5272   1.409       .  A
C5271      C5276   1.406       .  A
C5272      C5273   1.410       .  A
C5272     Br5283   1.928       .  S
C5273      C5274   1.412       .  A
C5273     Br5279   1.928       .  S
C5274      C5275   1.416       .  A
C5275      C5276   1.404       .  A
C5275     Br5284   1.934       .  S
C5276     Br5280   1.933       .  S
C5285      C5286   1.411       .  A
C5285      C5290   1.410       .  A
C5286      C5287   1.405       .  A
C5286     Br5298   1.929       .  S
C5287      C5288   1.408       .  A
C5287     Br5302   1.931       .  S
C5288      C5291   1.479       .  S
C5288      C5289   1.408       .  A
C5289      C5290   1.406       .  A
C5289     Br5297   1.930       .  S
C5290     Br5301   1.930       .  S
C5291      C5292   1.406       .  A
C5291      C5296   1.407       .  A
C5292      C5293   1.405       .  A
C5292     Br5303   1.931       .  S
C5293      C5294   1.414       .  A
C5293     Br5299   1.933       .  S
C5294      C5295   1.414       .  A
C5295      C5296   1.406       .  A
C5295     Br5304   1.929       .  S
C5296     Br5300   1.931       .  S
C5305      C5306   1.416       .  A
C5305      C5310   1.423       .  A
C5306      C5307   1.412       .  A
C5306     Br5318   1.930       .  S
C5307      C5308   1.409       .  A
C5307     Br5322   1.930       .  S
C5308      C5311   1.492       .  S
C5308      C5309   1.406       .  A
C5309      C5310   1.410       .  A
C5309     Br5317   1.932       .  S
C5310     Br5321   1.935       .  S
C5311      C5312   1.411       .  A
C5311      C5316   1.407       .  A
C5312      C5313   1.413       .  A
C5312     Br5323   1.929       .  S
C5313      C5314   1.412       .  A
C5313     Br5319   1.929       .  S
C5314      C5315   1.417       .  A
C5315      C5316   1.409       .  A
C5315     Br5324   1.931       .  S
C5316     Br5320   1.931       .  S
C5325      C5326   1.411       .  A
C5325      C5330   1.415       .  A
C5326      C5327   1.411       .  A
C5326     Br5338   1.929       .  S
C5327      C5328   1.412       .  A
C5327     Br5342   1.929       .  S
C5328      C5331   1.484       .  S
C5328      C5329   1.405       .  A
C5329      C5330   1.405       .  A
C5329     Br5337   1.931       .  S
C5330     Br5341   1.932       .  S
C5331      C5332   1.408       .  A
C5331      C5336   1.410       .  A
C5332      C5333   1.404       .  A
C5332     Br5343   1.931       .  S
C5333      C5334   1.409       .  A
C5333     Br5339   1.930       .  S
C5334      C5335   1.411       .  A
C5335      C5336   1.410       .  A
C5335     Br5344   1.929       .  S
C5336     Br5340   1.928       .  S
C5345      C5346   1.411       .  A
C5345      C5350   1.414       .  A
C5346      C5347   1.408       .  A
C5346     Br5358   1.930       .  S
C5347      C5348   1.409       .  A
C5347     Br5362   1.929       .  S
C5348      C5351   1.484       .  S
C5348      C5349   1.408       .  A
C5349      C5350   1.407       .  A
C5349     Br5357   1.931       .  S
C5350     Br5361   1.932       .  S
C5351      C5352   1.409       .  A
C5351      C5356   1.409       .  A
C5352      C5353   1.408       .  A
C5352     Br5363   1.929       .  S
C5353      C5354   1.412       .  A
C5353     Br5359   1.931       .  S
C5354      C5355   1.411       .  A
C5355      C5356   1.408       .  A
C5355     Br5364   1.928       .  S
C5356     Br5360   1.930       .  S
C5365      C5366   1.418       .  A
C5365      C5370   1.415       .  A
C5366      C5367   1.406       .  A
C5366     Br5378   1.934       .  S
C5367      C5368   1.407       .  A
C5367     Br5382   1.934       .  S
C5368      C5371   1.489       .  S
C5368      C5369   1.410       .  A
C5369      C5370   1.413       .  A
C5369     Br5377   1.927       .  S
C5370     Br5381   1.929       .  S
C5371      C5372   1.407       .  A
C5371      C5376   1.412       .  A
C5372      C5373   1.404       .  A
C5372     Br5383   1.934       .  S
C5373      C5374   1.414       .  A
C5373     Br5379   1.930       .  S
C5374      C5375   1.412       .  A
C5375      C5376   1.414       .  A
C5375     Br5384   1.927       .  S
C5376     Br5380   1.927       .  S
C5385      C5386   1.418       .  A
C5385      C5390   1.415       .  A
C5386      C5387   1.408       .  A
C5386     Br5398   1.930       .  S
C5387      C5388   1.406       .  A
C5387     Br5402   1.932       .  S
C5388      C5391   1.488       .  S
C5388      C5389   1.409       .  A
C5389      C5390   1.412       .  A
C5389     Br5397   1.930       .  S
C5390     Br5401   1.927       .  S
C5391      C5392   1.406       .  A
C5391      C5396   1.411       .  A
C5392      C5393   1.405       .  A
C5392     Br5403   1.933       .  S
C5393      C5394   1.418       .  A
C5393     Br5399   1.933       .  S
C5394      C5395   1.413       .  A
C5395      C5396   1.413       .  A
C5395     Br5404   1.928       .  S
C5396     Br5400   1.928       .  S
C5405      C5406   1.407       .  A
C5405      C5410   1.412       .  A
C5406      C5407   1.410       .  A
C5406     Br5418   1.924       .  S
C5407      C5408   1.412       .  A
C5407     Br5422   1.928       .  S
C5408      C5411   1.489       .  S
C5408      C5409   1.408       .  A
C5409      C5410   1.407       .  A
C5409     Br5417   1.930       .  S
C5410     Br5421   1.931       .  S
C5411      C5412   1.410       .  A
C5411      C5416   1.410       .  A
C5412      C5413   1.407       .  A
C5412     Br5423   1.931       .  S
C5413      C5414   1.412       .  A
C5413     Br5419   1.932       .  S
C5414      C5415   1.412       .  A
C5415      C5416   1.411       .  A
C5415     Br5424   1.929       .  S
C5416     Br5420   1.929       .  S
C5425      C5426   1.409       .  A
C5425      C5430   1.412       .  A
C5426      C5427   1.406       .  A
C5426     Br5438   1.931       .  S
C5427      C5428   1.409       .  A
C5427     Br5442   1.928       .  S
C5428      C5431   1.482   1_556  S
C5428      C5429   1.409       .  A
C5429      C5430   1.406       .  A
C5429     Br5437   1.930       .  S
C5430     Br5441   1.932       .  S
C5431      C5432   1.410       .  A
C5431      C5436   1.404       .  A
C5432      C5433   1.412       .  A
C5432     Br5443   1.928   1_554  S
C5433      C5434   1.412       .  A
C5433     Br5439   1.927       .  S
C5434      C5435   1.418       .  A
C5435      C5436   1.403       .  A
C5435     Br5444   1.931       .  S
C5436     Br5440   1.935   1_554  S
C5445      C5446   1.410       .  A
C5445      C5450   1.415       .  A
C5446      C5447   1.411       .  A
C5446     Br5458   1.928       .  S
C5447      C5448   1.411       .  A
C5447     Br5462   1.928       .  S
C5448      C5451   1.483       .  S
C5448      C5449   1.405       .  A
C5449      C5450   1.402       .  A
C5449     Br5457   1.933       .  S
C5450     Br5461   1.933       .  S
C5451      C5452   1.405       .  A
C5451      C5456   1.407       .  A
C5452      C5453   1.407       .  A
C5452     Br5463   1.933       .  S
C5453      C5454   1.421       .  A
C5453     Br5459   1.935       .  S
C5454      C5455   1.421       .  A
C5455      C5456   1.409       .  A
C5455     Br5464   1.935       .  S
C5456     Br5460   1.932       .  S
C5465      C5466   1.410       .  A
C5465      C5470   1.410       .  A
C5466      C5467   1.407       .  A
C5466     Br5478   1.931       .  S
C5467      C5468   1.410       .  A
C5467     Br5482   1.930       .  S
C5468      C5471   1.485       .  S
C5468      C5469   1.410       .  A
C5469      C5470   1.407       .  A
C5469     Br5477   1.930       .  S
C5470     Br5481   1.928       .  S
C5471      C5472   1.411       .  A
C5471      C5476   1.408       .  A
C5472      C5473   1.410       .  A
C5472     Br5483   1.930       .  S
C5473      C5474   1.412       .  A
C5473     Br5479   1.930       .  S
C5474      C5475   1.412       .  A
C5475      C5476   1.405       .  A
C5475     Br5484   1.931       .  S
C5476     Br5480   1.932       .  S
C5485      C5486   1.411       .  A
C5485      C5490   1.413       .  A
C5486      C5487   1.414       .  A
C5486     Br5498   1.928       .  S
C5487      C5488   1.413       .  A
C5487     Br5502   1.929       .  S
C5488      C5491   1.490       .  S
C5488      C5489   1.406       .  A
C5489      C5490   1.406       .  A
C5489     Br5497   1.934       .  S
C5490     Br5501   1.917       .  S
C5491      C5492   1.409       .  A
C5491      C5496   1.411       .  A
C5492      C5493   1.410       .  A
C5492     Br5503   1.930       .  S
C5493      C5494   1.415       .  A
C5493     Br5499   1.932       .  S
C5494      C5495   1.414       .  A
C5495      C5496   1.408       .  A
C5495     Br5504   1.934       .  S
C5496     Br5500   1.931       .  S
