geometry optimzed in LAMMPS
_audit_creation_date              2020-11-30 
_audit_creation_method            'lammps2cif' 
_symmetry_space_group_name_H-M    'P1' 
_symmetry_Int_Tables_number       1 
_symmetry_cell_setting            triclinic 
loop_ 
_symmetry_equiv_pos_as_xyz 
  x,y,z 
_cell_length_a                    48.43585017 
_cell_length_b                    47.742320914136144 
_cell_length_c                    45.12884333732971 
_cell_angle_alpha                 90.10814791461094 
_cell_angle_beta                  90.91195721728475 
_cell_angle_gamma                 89.4935215832948 
loop_ 
_atom_site_label 
_atom_site_type_symbol 
_atom_site_fract_x 
_atom_site_fract_y 
_atom_site_fract_z 
_atom_site_charge 
N1          N  0.95698320  0.98462228  0.20944344    -0.35900
N2          N  0.00470922  0.94780390  0.21807821    -0.56400
N3          N  0.03987924  0.99662094  0.22298141    -0.35900
N4          N  0.99238462  0.03336370  0.21045628    -0.56400
C5          C  0.94498802  0.95957441  0.20450117     0.27700
C6          C  0.93829011  0.00469427  0.20198981     0.27700
C7          C  0.05939540  0.97616653  0.22297278     0.27700
C8          C  0.05282529  0.02125739  0.21900732     0.27700
C9          C  0.98474567  0.92824781  0.21862583     0.36300
C10         C  0.02845048  0.93466756  0.22615759     0.36300
C11         C  0.96764537  0.04668077  0.21061490     0.36300
C12         C  0.01149914  0.05303594  0.21666388     0.36300
C13         C  0.91827359  0.96384566  0.19368885    -0.21100
C14         C  0.91404634  0.99233477  0.19218998    -0.21100
C15         C  0.08516832  0.98802816  0.21942301    -0.21100
C16         C  0.08101949  0.01647637  0.21687854    -0.21100
C17         C  0.99597713  0.90240022  0.22622161    -0.22200
C18         C  0.02362088  0.90645979  0.23106670    -0.22200
C19         C  0.97118149  0.07504607  0.21594389    -0.22200
C20         C  0.99895889  0.07909288  0.21961997    -0.22200
C21         C  0.95654164  0.93308048  0.21186579    -0.17600
C22         C  0.94174598  0.03375537  0.20621522    -0.17600
C23         C  0.04019529  0.04808558  0.21958126    -0.17500
C24         C  0.05474621  0.94728094  0.22765455    -0.17500
H25         H  0.90308184  0.94811039  0.18817485     0.15400
H26         H  0.89510077  0.00276163  0.18524150     0.15400
H27         H  0.10497275  0.97737238  0.21904528     0.15400
H28         H  0.09701339  0.03192386  0.21424198     0.15400
H29         H  0.98534873  0.88265518  0.22816318     0.13600
H30         H  0.03844691  0.89033819  0.23725062     0.13600
H31         H  0.95538607  0.09114985  0.21736211     0.13600
H32         H  0.00874562  0.09891003  0.22447675     0.13600
H33         H  0.97521856  0.98783507  0.22114148     0.26900
H34         H  0.01949756  0.99434263  0.22902003     0.26900
O35         O  0.20178615  0.29578663  0.27904339    -0.80100
O36         O  0.22346881  0.20287267  0.18101527    -0.64800
O37         O  0.22270198  0.24963674  0.24867183    -1.11400
C38         C  0.29396660  0.29738389  0.20414518     1.06700
O39         O  0.26801467  0.20531293  0.16953572    -0.78000
O40         O  0.28882013  0.22152526  0.22449064    -0.65600
Ni41       Ni  0.18697650  0.26266102  0.26071388     1.34900
C42         C  0.28956999  0.23491188  0.24892236     0.85500
O43         O  0.19921310  0.19963847  0.23260029    -0.78600
O44         O  0.16731654  0.23003288  0.24666660    -0.88900
C45         C  0.24381480  0.19579613  0.16541705     0.85100
O46         O  0.18107464  0.28129861  0.22378266    -0.67100
O47         O  0.30220178  0.27234431  0.19979917    -0.86300
C48         C  0.18057466  0.26864585  0.19897818     0.85900
C49         C  0.17491269  0.20510962  0.24065660     1.07400
H50         H  0.23849893  0.26204693  0.18124804     0.39300
O51         O  0.24703600  0.25270414  0.19805935    -1.09000
O52         O  0.27744657  0.25856453  0.25197030    -0.65700
Ni53       Ni  0.24652644  0.27674200  0.23145082     1.26300
O54         O  0.19238175  0.24493522  0.19516851    -0.65900
O55         O  0.26992467  0.30300386  0.21309315    -0.78200
C56         C  0.22539357  0.30708584  0.28112115     0.85300
O57         O  0.24539066  0.30072369  0.26470674    -0.65400
Ni58       Ni  0.28276255  0.23909900  0.18685893     1.27400
Ni59       Ni  0.22290302  0.22593764  0.21494901     1.26100
H60         H  0.23131528  0.24030813  0.26480124     0.39800
O61         O  0.69513067  0.20162378  0.24639464    -0.80100
O62         O  0.78568640  0.23462632  0.15604678    -0.64800
O63         O  0.74514849  0.22567314  0.22693507    -1.11400
C64         C  0.69241539  0.30202379  0.18886412     1.06700
O65         O  0.78841976  0.28063336  0.16211542    -0.78000
O66         O  0.76222571  0.30650632  0.20786716    -0.65600
Ni67       Ni  0.73258855  0.18950330  0.23896826     1.34900
C68         C  0.75352381  0.30145755  0.23366026     0.85500
O69         O  0.79197385  0.20055813  0.20221398    -0.78600
O70         O  0.76860339  0.17317494  0.23323838    -0.88900
C71         C  0.79697074  0.25782317  0.15049453     0.85100
O72         O  0.72071077  0.17615818  0.20118020    -0.67100
O73         O  0.71417816  0.30893170  0.17498596    -0.86300
C74         C  0.72820273  0.18176317  0.17507505     0.85900
C75         C  0.78993598  0.17873065  0.21815267     1.07400
H76         H  0.72719991  0.24988180  0.16493325     0.39300
O77         O  0.73856018  0.25668831  0.18114015    -1.09000
O78         O  0.73717065  0.28136283  0.23878720    -0.65700
Ni79       Ni  0.71790187  0.25306036  0.21627335     1.26300
O80         O  0.74481691  0.20136988  0.16908806    -0.65900
O81         O  0.69096758  0.28007860  0.20453095    -0.78200
C82         C  0.68631164  0.22458991  0.25708398     0.85300
O83         O  0.69753497  0.24762062  0.25120086    -0.65400
Ni84       Ni  0.75080011  0.29301949  0.16965255     1.27400
Ni85       Ni  0.76552936  0.22885473  0.19132538     1.26100
H86         H  0.75650172  0.23285224  0.24297730     0.39800
O87         O  0.79559604  0.69280156  0.15795595    -0.80100
O88         O  0.70865156  0.73455760  0.24613913    -0.64800
O89         O  0.74681867  0.71999936  0.17511357    -1.11400
C90         C  0.80136684  0.79648124  0.20758516     1.06700
O91         O  0.70575800  0.77970436  0.23544253    -0.78000
O92         O  0.73285395  0.80273987  0.18931550    -0.65600
Ni93       Ni  0.75765262  0.68294195  0.16433822     1.34900
C94         C  0.73996571  0.79559179  0.16346330     0.85500
O95         O  0.70000720  0.69848326  0.20197820    -0.78600
O96         O  0.72049340  0.67007766  0.16899233    -0.88900
C97         C  0.69694479  0.75819847  0.24883988     0.85100
O98         O  0.76770804  0.66889887  0.20266612    -0.67100
O99         O  0.78029003  0.80406707  0.22230786    -0.86300
C100        C  0.76238715  0.67664744  0.22889921     0.85900
C101        C  0.69984514  0.67746776  0.18451963     1.07400
H102        H  0.76709424  0.74684604  0.23476200     0.39300
O103        O  0.75536319  0.75311534  0.21853398    -1.09000
O104        O  0.75518800  0.77421023  0.15886975    -0.65700
Ni105      Ni  0.77483612  0.74692757  0.18289578     1.26300
O106        O  0.74833807  0.69862921  0.23464683    -0.65900
O107        O  0.80250628  0.77411802  0.19212558    -0.78200
C108        C  0.80417512  0.71401358  0.14396372     0.85300
O109        O  0.79386569  0.73813233  0.14767454    -0.65400
Ni110      Ni  0.74355074  0.79021748  0.22806370     1.27400
Ni111      Ni  0.72768709  0.72580944  0.21098356     1.26100
H112        H  0.73500706  0.72680711  0.15919227     0.39800
O113        O  0.28287102  0.80796653  0.16709898    -0.80100
O114        O  0.27231433  0.69750811  0.24207707    -0.64800
O115        O  0.26601013  0.75418634  0.18422611    -1.11400
C116        C  0.19428829  0.79137271  0.23811149     1.06700
O117        O  0.23088724  0.69930756  0.26309964    -0.78000
O118        O  0.20519459  0.71795740  0.21218971    -0.65600
Ni119      Ni  0.29942879  0.77121033  0.17111507     1.34900
C120        C  0.20123947  0.73257835  0.18903042     0.85500
O121        O  0.29180332  0.70346464  0.18902430    -0.78600
O122        O  0.31993430  0.73619258  0.17172488    -0.88900
C123        C  0.25468223  0.68841719  0.25982386     0.85100
O124        O  0.31222113  0.78076372  0.20992309    -0.67100
O125        O  0.18888687  0.76563973  0.24201088    -0.86300
C126        C  0.31438366  0.76461672  0.23209752     0.85900
C127        C  0.31350657  0.71070254  0.17600960     1.07400
H128        H  0.25603320  0.75743379  0.25358485     0.39300
O129        O  0.24605363  0.74947556  0.23692984    -1.09000
O130        O  0.21089043  0.75739631  0.18681374    -0.65700
Ni131      Ni  0.24153377  0.77665530  0.20660822     1.26300
O132        O  0.30133373  0.74162031  0.23364741    -0.65900
O133        O  0.21774088  0.79911835  0.22970661    -0.78200
C134        C  0.25797077  0.81663330  0.16526016     0.85300
O135        O  0.23812334  0.80348269  0.17627155    -0.65400
Ni136      Ni  0.21232789  0.73321057  0.25049223     1.27400
Ni137      Ni  0.26941436  0.72595371  0.21336997     1.26100
H138        H  0.25666580  0.74654381  0.16698898     0.39800
N139        N  0.21688426  0.96317616  0.96821837    -0.35900
N140        N  0.19969810  0.01095146  0.00113736    -0.56400
N141        N  0.20544465  0.04701286  0.95012356    -0.35900
N142        N  0.22019491  0.99798127  0.91645371    -0.56400
C143        C  0.22160906  0.95437774  0.99622020     0.27700
C144        C  0.23309428  0.94743705  0.95067259     0.27700
C145        C  0.20841851  0.06553187  0.97259758     0.27700
C146        C  0.21750497  0.05837651  0.92626702     0.27700
C147        C  0.19526172  0.99129823  0.02179473     0.36300
C148        C  0.19093216  0.03537985  0.01256250     0.36300
C149        C  0.22413720  0.97274545  0.90383861     0.36300
C150        C  0.21774712  0.01646749  0.89411011     0.36300
C151        C  0.24070091  0.93250071  0.99639379    -0.21100
C152        C  0.24795796  0.92810748  0.96751232    -0.21100
C153        C  0.22163237  0.08930823  0.96266924    -0.21100
C154        C  0.22722343  0.08486431  0.93329246    -0.21100
C155        C  0.18210604  0.00289377  0.04595466    -0.22200
C156        C  0.17964518  0.03106598  0.04023625    -0.22200
C157        C  0.22333633  0.97496305  0.87321786    -0.22200
C158        C  0.21932915  0.00285721  0.86701655    -0.22200
C159        C  0.20847499  0.96510299  0.02148190    -0.17600
C160        C  0.23376221  0.94929069  0.91969672    -0.17600
C161        C  0.21970605  0.04547957  0.89826963    -0.17500
C162        C  0.19989646  0.06129748  0.00195778    -0.17500
H163        H  0.24867794  0.92095722  0.01533873     0.15400
H164        H  0.26253557  0.91250987  0.95980033     0.15400
H165        H  0.22700444  0.10779205  0.97535443     0.15400
H166        H  0.23775874  0.09927820  0.91894854     0.15400
H167        H  0.17730833  0.99266190  0.06660479     0.13600
H168        H  0.17253872  0.04685385  0.05565071     0.13600
H169        H  0.22717539  0.95856304  0.85716583     0.13600
H170        H  0.21944349  0.01227118  0.84521719     0.13600
H171        H  0.20147434  0.97709788  0.96115887     0.26900
H172        H  0.19443397  0.02837939  0.95051390     0.26900
N173        N  0.97145802  0.27071927  0.96240296    -0.35900
N174        N  0.01040125  0.27986836  0.00992203    -0.56400
N175        N  0.05524000  0.28345321  0.96678261    -0.35900
N176        N  0.01610552  0.27155073  0.91952562    -0.56400
C177        C  0.95506170  0.26537703  0.98571422     0.27700
C178        C  0.95792448  0.26212612  0.93768109     0.27700
C179        C  0.06988874  0.28234551  0.99248594     0.27700
C180        C  0.07279691  0.27714821  0.94458699     0.27700
C181        C  0.98710016  0.28069991  0.02605008     0.36300
C182        C  0.03110580  0.28801410  0.02821666     0.36300
C183        C  0.99422103  0.27253896  0.90071080     0.36300
C184        C  0.03843747  0.27748190  0.90323652     0.36300
C185        C  0.93069033  0.25340005  0.97560521    -0.21100
C186        C  0.93242133  0.25151500  0.94527314    -0.21100
C187        C  0.09727386  0.27598144  0.98650890    -0.21100
C188        C  0.09909030  0.27268961  0.95626925    -0.21100
C189        C  0.99306724  0.28902948  0.05482398    -0.22200
C190        C  0.02091761  0.29374197  0.05619858    -0.22200
C191        C  0.00270518  0.27887829  0.87229843    -0.22200
C192        C  0.03079194  0.28189314  0.87388652    -0.22200
C193        C  0.96069259  0.27272954  0.01558951    -0.17600
C194        C  0.96694444  0.26591417  0.90832583    -0.17600
C195        C  0.06586804  0.27645581  0.91400737    -0.17500
C196        C  0.05943704  0.28771469  0.02110678    -0.17500
H197        H  0.91320806  0.24721868  0.98864754     0.15400
H198        H  0.91650478  0.24362587  0.93045124     0.15400
H199        H  0.11421250  0.27388177  0.00230719     0.15400
H200        H  0.11764862  0.26761337  0.94425900     0.15400
H201        H  0.97889216  0.29120654  0.07300410     0.13600
H202        H  0.03244243  0.30012478  0.07578019     0.13600
H203        H  0.99006197  0.28057299  0.85237763     0.13600
H204        H  0.04410559  0.28641455  0.85549282     0.13600
H205        H  0.98911213  0.28282943  0.96271097     0.26900
H206        H  0.03507246  0.29072958  0.96444973     0.26900
N207        N  0.72263034  0.03866625  0.95345661    -0.35900
N208        N  0.72710766  0.99679337  0.90666795    -0.56400
N209        N  0.72475571  0.95251718  0.95074953    -0.35900
N210        N  0.72267703  0.99420752  0.99768397    -0.56400
C211        C  0.72801029  0.05554717  0.93022005     0.27700
C212        C  0.72509605  0.05418339  0.97846069     0.27700
C213        C  0.73161624  0.93749628  0.92647401     0.27700
C214        C  0.73006873  0.93618583  0.97467398     0.27700
C215        C  0.72322121  0.01991957  0.88983715     0.36300
C216        C  0.72357932  0.97453928  0.88846929     0.36300
C217        C  0.71671373  0.01624200  0.01534957     0.36300
C218        C  0.71847672  0.97089757  0.01389810     0.36300
C219        C  0.73338059  0.08236298  0.94055176    -0.21100
C220        C  0.73147071  0.08152581  0.97095130    -0.21100
C221        C  0.74098214  0.91114964  0.93503306    -0.21100
C222        C  0.74007298  0.91034531  0.96545003    -0.21100
C223        C  0.71754781  0.01227824  0.86071193    -0.22200
C224        C  0.71755856  0.98353397  0.85990524    -0.22200
C225        C  0.70889557  0.00684801  0.04303622    -0.22200
C226        C  0.70988187  0.97811699  0.04205282    -0.22200
C227        C  0.72650033  0.04782623  0.89989222    -0.17600
C228        C  0.72032114  0.04469490  0.00769271    -0.17600
C229        C  0.72464822  0.94334027  0.00447279    -0.17500
C230        C  0.72814581  0.94632366  0.89673483    -0.17500
H231        H  0.73784185  0.10074329  0.92752659     0.15400
H232        H  0.73424584  0.09914045  0.98580193     0.15400
H233        H  0.74764234  0.89418205  0.92082279     0.15400
H234        H  0.74587677  0.89262192  0.97919002     0.15400
H235        H  0.71404186  0.02596073  0.84190843     0.13600
H236        H  0.71425444  0.97071641  0.84037976     0.13600
H237        H  0.70350377  0.01935868  0.06214728     0.13600
H238        H  0.70547147  0.96414865  0.06020516     0.13600
H239        H  0.71490867  0.01854437  0.95214593     0.26900
H240        H  0.71408252  0.97145641  0.95073074     0.26900
N241        N  0.06322324  0.68391317  0.96841515    -0.35900
N242        N  0.01853135  0.68627808  0.00993207    -0.56400
N243        N  0.97835154  0.68670185  0.96118373    -0.35900
N244        N  0.02292257  0.68511633  0.91975761    -0.56400
C245        C  0.07700073  0.69143646  0.99347543     0.27700
C246        C  0.07942127  0.69049020  0.94538019     0.27700
C247        C  0.96215887  0.69372943  0.98420152     0.27700
C248        C  0.96464572  0.69438320  0.93605750     0.27700
C249        C  0.03982833  0.68189226  0.02907547     0.36300
C250        C  0.99524401  0.68239554  0.02532959     0.36300
C251        C  0.04605984  0.68047543  0.90423663     0.36300
C252        C  0.00158491  0.68312908  0.90029867     0.36300
C253        C  0.10248754  0.70230786  0.98629169    -0.21100
C254        C  0.10401058  0.70172745  0.95591340    -0.21100
C255        C  0.93756367  0.70530435  0.97357863    -0.21100
C256        C  0.93912992  0.70570637  0.94320957    -0.21100
C257        C  0.03007405  0.67485903  0.05675578    -0.22200
C258        C  0.00173183  0.67512740  0.05436674    -0.22200
C259        C  0.03938830  0.67504456  0.87478491    -0.22200
C260        C  0.01113914  0.67678450  0.87228348    -0.22200
C261        C  0.06754836  0.68789745  0.02268598    -0.17600
C262        C  0.07290178  0.68600345  0.91512598    -0.17600
C263        C  0.97419188  0.69078575  0.90680341    -0.17500
C264        C  0.96851704  0.68900207  0.01449756    -0.17500
H265        H  0.11830776  0.71000122  0.00135720     0.15400
H266        H  0.12123093  0.70890903  0.94304855     0.15400
H267        H  0.92028704  0.71280677  0.98637827     0.15400
H268        H  0.92328996  0.71356758  0.92813170     0.15400
H269        H  0.04209961  0.67107710  0.07679275     0.13600
H270        H  0.98752823  0.67160739  0.07223072     0.13600
H271        H  0.05347163  0.67170784  0.85670348     0.13600
H272        H  0.99912493  0.67489471  0.85196227     0.13600
H273        H  0.04496888  0.67264361  0.96714602     0.26900
H274        H  0.99650396  0.67499265  0.96257647     0.26900
O275        O  0.31168262  0.78706004  0.77794975    -0.80100
O276        O  0.28177856  0.72332133  0.66140861    -0.64800
O277        O  0.28978399  0.77808543  0.72102392    -1.11400
C278        C  0.21531879  0.72733820  0.76297764     1.06700
O279        O  0.23674652  0.73009051  0.65847968    -0.78000
O280        O  0.20748577  0.76037265  0.69853174    -0.65600
Ni281      Ni  0.32569360  0.78386423  0.73843541     1.34900
C282        C  0.21337003  0.78371823  0.71046030     0.85500
O283        O  0.31286855  0.76811981  0.66670065    -0.78600
O284        O  0.34374622  0.78248464  0.70045490    -0.88900
C285        C  0.25880386  0.71925562  0.64871196     0.85100
O286        O  0.33412413  0.74554108  0.74616078    -0.67100
O287        O  0.21137639  0.71699755  0.73717770    -0.86300
C288        C  0.33052862  0.72440130  0.72959098     0.85900
C289        C  0.33621365  0.77806811  0.67360977     1.07400
H290        H  0.26754371  0.71738965  0.72440031     0.39300
O291        O  0.25999309  0.73429692  0.71575550    -1.09000
O292        O  0.23465266  0.78729313  0.72689023    -0.65700
Ni293      Ni  0.26174433  0.76246661  0.74517825     1.26300
O294        O  0.31465757  0.72504098  0.70683513    -0.65900
O295        O  0.23361530  0.74573197  0.76887810    -0.78200
C296        C  0.28877660  0.79748749  0.78584415     0.85300
O297        O  0.26598370  0.79099638  0.77369307    -0.65400
Ni298      Ni  0.22515061  0.72436153  0.69859286     1.27400
Ni299      Ni  0.28672965  0.75061904  0.69094749     1.26100
H300        H  0.28348976  0.79580296  0.71297197     0.39800
N301        N  0.97695713  0.99035072  0.71975858    -0.35900
N302        N  0.02133272  0.94792410  0.71959116    -0.56400
N303        N  0.06112777  0.99062239  0.71162936    -0.35900
N304        N  0.01677172  0.03322283  0.71093070    -0.56400
C305        C  0.96267011  0.96649922  0.71532098     0.27700
C306        C  0.96027950  0.01193331  0.71123042     0.27700
C307        C  0.07626381  0.96770260  0.70421342     0.27700
C308        C  0.07391235  0.01317686  0.70042446     0.27700
C309        C  0.99998233  0.93186938  0.72760887     0.36300
C310        C  0.04438920  0.93201442  0.72296212     0.36300
C311        C  0.99448356  0.04970008  0.71622221     0.36300
C312        C  0.03914473  0.04980437  0.71315722     0.36300
C313        C  0.93648263  0.97301998  0.70420174    -0.21100
C314        C  0.93501402  0.00169070  0.70156605    -0.21100
C315        C  0.09894838  0.97582586  0.68811678    -0.21100
C316        C  0.09741956  0.00457186  0.68562536    -0.21100
C317        C  0.00950658  0.90564024  0.73643033    -0.22200
C318        C  0.03772225  0.90575988  0.73353688    -0.22200
C319        C  0.00267354  0.07692633  0.72179714    -0.22200
C320        C  0.03102467  0.07698883  0.72000071    -0.22200
C321        C  0.97201047  0.93916166  0.72272521    -0.17600
C322        C  0.96683743  0.04067223  0.71360173    -0.17600
C323        C  0.06630531  0.04135368  0.70584989    -0.17500
C324        C  0.07061160  0.93986489  0.71280273    -0.17500
H325        H  0.91997191  0.95865190  0.69884917     0.15400
H326        H  0.91725409  0.01365134  0.69378789     0.15400
H327        H  0.11504026  0.96247060  0.67932952     0.15400
H328        H  0.11227315  0.01772952  0.67479352     0.15400
H329        H  0.99728524  0.88791208  0.74305503     0.13600
H330        H  0.05157366  0.88820632  0.73752998     0.13600
H331        H  0.98956850  0.09488351  0.72622271     0.13600
H332        H  0.04409903  0.09512808  0.72260641     0.13600
H333        H  0.99584181  0.99184570  0.73094021     0.26900
H334        H  0.04496408  0.99139459  0.72653944     0.26900
O335        O  0.29325562  0.20812349  0.75817812    -0.80100
O336        O  0.25620542  0.30477273  0.67044821    -0.64800
O337        O  0.26557652  0.25635710  0.73592880    -1.11400
C338        C  0.19420770  0.20520087  0.69132550     1.06700
O339        O  0.21023311  0.30451020  0.66973317    -0.78000
O340        O  0.19206714  0.27748630  0.71832687    -0.65600
Ni341      Ni  0.30258147  0.24585437  0.74799698     1.34900
C342        C  0.19488698  0.26250126  0.74131208     0.85500
O343        O  0.28530547  0.30900817  0.71934219    -0.78600
O344        O  0.31729015  0.28248976  0.74118599    -0.88900
C345        C  0.23320271  0.31530718  0.66300775     0.85100
O346        O  0.31343595  0.23362961  0.70974178    -0.67100
O347        O  0.18441561  0.22946887  0.68522377    -0.86300
C348        C  0.30993985  0.24569644  0.68494477     0.85900
C349        C  0.30881603  0.30608325  0.73150479     1.07400
H350        H  0.24451810  0.24587503  0.66927961     0.39300
O351        O  0.23705734  0.25397575  0.68712042    -1.09000
O352        O  0.21174306  0.24186963  0.74234703    -0.65700
Ni353      Ni  0.24208935  0.22834393  0.71869376     1.26300
O354        O  0.29177502  0.26489558  0.68065191    -0.65900
O355        O  0.21875913  0.20130073  0.70066065    -0.78200
C356        C  0.27079760  0.19513642  0.76129739     0.85300
O357        O  0.24808809  0.20285275  0.74983107    -0.65400
Ni358      Ni  0.19979281  0.26637419  0.67868577     1.27400
Ni359      Ni  0.26161805  0.28114691  0.70308158     1.26100
H360        H  0.25676685  0.26484442  0.75282129     0.39800
O361        O  0.80403682  0.28294269  0.74585717    -0.80100
O362        O  0.71262121  0.24923082  0.65657593    -0.64800
O363        O  0.75437940  0.25703065  0.72789506    -1.11400
C364        C  0.80880660  0.18183551  0.69356028     1.06700
O365        O  0.71504245  0.20259491  0.65424996    -0.78000
O366        O  0.73475242  0.18149548  0.70640142    -0.65600
Ni367      Ni  0.76556135  0.29313788  0.74169156     1.34900
C368        C  0.74528240  0.18408094  0.73214166     0.85500
O369        O  0.70589990  0.28116060  0.70462534    -0.78600
O370        O  0.72817334  0.30667561  0.73926782    -0.88900
C371        C  0.70439703  0.22599146  0.64633713     0.85100
O372        O  0.77329621  0.30995433  0.70451824    -0.67100
O373        O  0.78609869  0.17374997  0.68163143    -0.86300
C374        C  0.76600186  0.30485919  0.67801807     0.85900
C375        C  0.70682719  0.30125475  0.72338683     1.07400
H376        H  0.77232401  0.23543572  0.66502844     0.39300
O377        O  0.76167181  0.22778376  0.68097383    -1.09000
O378        O  0.76453230  0.20144237  0.73789162    -0.65700
Ni379      Ni  0.78267535  0.23133634  0.71688516     1.26300
O380        O  0.75199456  0.28336081  0.67095477    -0.65900
O381        O  0.81104517  0.20598477  0.70498327    -0.78200
C382        C  0.81313580  0.26090779  0.75839701     0.85300
O383        O  0.80295724  0.23722157  0.75260229    -0.65400
Ni384      Ni  0.75091767  0.19068291  0.66946731     1.27400
Ni385      Ni  0.73338391  0.25422957  0.69218358     1.26100
H386        H  0.74365684  0.24885901  0.74349468     0.39800
O387        O  0.72028072  0.78737221  0.66007143    -0.80100
O388        O  0.80984152  0.74692951  0.75346861    -0.64800
O389        O  0.76952358  0.76072236  0.68163914    -1.11400
C390        C  0.71791182  0.68291465  0.71284882     1.06700
O391        O  0.81346382  0.70155513  0.74408525    -0.78000
O392        O  0.78834221  0.67994247  0.69550129    -0.65600
Ni393      Ni  0.75747457  0.79794243  0.67177996     1.34900
C394        C  0.77968206  0.68666804  0.66978553     0.85500
O395        O  0.81664235  0.78222413  0.70946754    -0.78600
O396        O  0.79344765  0.81291861  0.68120112    -0.88900
C397        C  0.82176340  0.72352061  0.75731932     0.85100
O398        O  0.74438704  0.80839864  0.70993228    -0.67100
O399        O  0.74010911  0.67506758  0.72609134    -0.86300
C400        C  0.75243847  0.80205643  0.73602673     0.85900
C401        C  0.81499218  0.80536623  0.69573314     1.07400
H402        H  0.75161564  0.73313398  0.74143976     0.39300
O403        O  0.76292590  0.72725259  0.72510169    -1.09000
O404        O  0.76197023  0.70615143  0.66533775    -0.65700
Ni405      Ni  0.74222181  0.73325693  0.68933925     1.26300
O406        O  0.76953761  0.78215594  0.74121403    -0.65900
O407        O  0.71532075  0.70587062  0.69872661    -0.78200
C408        C  0.71123956  0.76511173  0.64788566     0.85300
O409        O  0.72161381  0.74134628  0.65399886    -0.65400
Ni410      Ni  0.77616780  0.69024957  0.73407115     1.27400
Ni411      Ni  0.78978929  0.75494137  0.71783017     1.26100
H412        H  0.78100994  0.75435902  0.66563259     0.39800
N413        N  0.46495520  0.50601076  0.73729727    -0.35900
N414        N  0.50918983  0.54642971  0.73750028    -0.56400
N415        N  0.54984586  0.50004822  0.73678518    -0.35900
N416        N  0.50560472  0.45954670  0.73631239    -0.56400
C417        C  0.44968255  0.52982996  0.73993426     0.27700
C418        C  0.44766132  0.48408230  0.73977686     0.27700
C419        C  0.56658741  0.52204186  0.73174183     0.27700
C420        C  0.56467672  0.47631594  0.73168172     0.27700
C421        C  0.48787547  0.56483855  0.73885574     0.36300
C422        C  0.53247608  0.56170543  0.73750201     0.36300
C423        C  0.48230914  0.44427837  0.73757801     0.36300
C424        C  0.52702347  0.44116392  0.73634516     0.36300
C425        C  0.42221258  0.52288339  0.74348523    -0.21100
C426        C  0.42091686  0.49413680  0.74330853    -0.21100
C427        C  0.59252849  0.51212600  0.72400480    -0.21100
C428        C  0.59132888  0.48336987  0.72400753    -0.21100
C429        C  0.49771927  0.59199631  0.73993453    -0.22200
C430        C  0.52591598  0.59002776  0.73904641    -0.22200
C431        C  0.48902263  0.41594483  0.73814013    -0.22200
C432        C  0.51729083  0.41399705  0.73750787    -0.22200
C433        C  0.45957883  0.55774205  0.73918468    -0.17600
C434        C  0.45499892  0.45519582  0.73900979    -0.17600
C435        C  0.55523222  0.44837110  0.73435989    -0.17500
C436        C  0.55956939  0.55087697  0.73445121    -0.17500
H437        H  0.40484475  0.53703901  0.74611571     0.15400
H438        H  0.40232059  0.48202727  0.74584747     0.15400
H439        H  0.61054013  0.52433707  0.71883166     0.15400
H440        H  0.60819207  0.46926481  0.71879894     0.15400
H441        H  0.48584369  0.61127067  0.74108071     0.13600
H442        H  0.53996069  0.60753914  0.73916827     0.13600
H443        H  0.47502657  0.39844256  0.73929121     0.13600
H444        H  0.52927595  0.39475429  0.73772260     0.13600
H445        H  0.48563286  0.50461684  0.73229119     0.26900
H446        H  0.53039865  0.50125031  0.74595286     0.26900
N447        N  0.44677938  0.49761836  0.18250635    -0.35900
N448        N  0.48698679  0.45354992  0.19344398    -0.56400
N449        N  0.53122191  0.49403274  0.18828731    -0.35900
N450        N  0.49101281  0.53763112  0.17487525    -0.56400
C451        C  0.43043910  0.47488781  0.18051050     0.27700
C452        C  0.43276712  0.51919361  0.16986305     0.27700
C453        C  0.54604301  0.46992431  0.18759764     0.27700
C454        C  0.54808373  0.51487934  0.17979849     0.27700
C455        C  0.46387195  0.43947354  0.20026978     0.36300
C456        C  0.50859043  0.43700684  0.20146685     0.36300
C457        C  0.46914254  0.55529005  0.17507090     0.36300
C458        C  0.51354288  0.55366153  0.17902310     0.36300
C459        C  0.40558191  0.48218001  0.16676572    -0.21100
C460        C  0.40709947  0.51017729  0.15994850    -0.21100
C461        C  0.57286712  0.47569033  0.17917914    -0.21100
C462        C  0.57415846  0.50407218  0.17437804    -0.21100
C463        C  0.47080382  0.41384433  0.21285408    -0.22200
C464        C  0.49918033  0.41220892  0.21343826    -0.22200
C465        C  0.47782246  0.58265082  0.17916225    -0.22200
C466        C  0.50602189  0.58163857  0.18138388    -0.22200
C467        C  0.43678320  0.44819373  0.19235374    -0.17600
C468        C  0.44164260  0.54725739  0.16937059    -0.17600
C469        C  0.54092219  0.54359910  0.17848795    -0.17500
C470        C  0.53655437  0.44312335  0.19595459    -0.17500
H471        H  0.38804543  0.46881397  0.16238876     0.15400
H472        H  0.39096749  0.52260638  0.14936714     0.15400
H473        H  0.58994753  0.46107663  0.17716226     0.15400
H474        H  0.59229325  0.51545564  0.16783322     0.15400
H475        H  0.45687152  0.39771431  0.22008032     0.13600
H476        H  0.51147158  0.39466051  0.22141131     0.13600
H477        H  0.46522535  0.60145974  0.18004210     0.13600
H478        H  0.51942319  0.59949982  0.18417295     0.13600
H479        H  0.46487102  0.49913416  0.19504108     0.26900
H480        H  0.51170865  0.49660318  0.19707555     0.26900
N481        N  0.79188145  0.53454789  0.45073471    -0.35900
N482        N  0.78923134  0.48827658  0.40806153    -0.56400
N483        N  0.78234597  0.44905632  0.45710489    -0.35900
N484        N  0.78786428  0.49515995  0.49968154    -0.56400
C485        C  0.79749773  0.54841413  0.42542043     0.27700
C486        C  0.79723025  0.55208877  0.47372343     0.27700
C487        C  0.78462692  0.43075995  0.43425789     0.27700
C488        C  0.78502222  0.43426090  0.48259557     0.27700
C489        C  0.78781337  0.51004035  0.38886164     0.36300
C490        C  0.78296628  0.46497339  0.39225465     0.36300
C491        C  0.78682970  0.51935009  0.51536122     0.36300
C492        C  0.78248209  0.47416123  0.51879947     0.36300
C493        C  0.80637913  0.57520371  0.43238308    -0.21100
C494        C  0.80613321  0.57754684  0.46278929    -0.21100
C495        C  0.78828177  0.40390573  0.44534970    -0.21100
C496        C  0.78844068  0.40608331  0.47576272    -0.21100
C497        C  0.78134181  0.50038663  0.36062858    -0.22200
C498        C  0.77836219  0.47191023  0.36275333    -0.22200
C499        C  0.78096523  0.51362804  0.54470299    -0.22200
C500        C  0.77830759  0.48507223  0.54689270    -0.22200
C501        C  0.79238397  0.53856659  0.39617672    -0.17600
C502        C  0.79297770  0.54634969  0.50418380    -0.17600
C503        C  0.78323760  0.44514068  0.51186156    -0.17500
C504        C  0.78192349  0.43733451  0.40369658    -0.17500
H505        H  0.81187749  0.59160152  0.41709312     0.15400
H506        H  0.81154355  0.59607387  0.47538085     0.15400
H507        H  0.79032712  0.38465726  0.43283579     0.15400
H508        H  0.79064801  0.38876845  0.49108961     0.15400
H509        H  0.77880974  0.51260730  0.34057568     0.13600
H510        H  0.77310578  0.45794676  0.34464318     0.13600
H511        H  0.77932347  0.52842465  0.56280718     0.13600
H512        H  0.77419850  0.47363699  0.56700720     0.13600
H513        H  0.78178660  0.51559218  0.45197764     0.26900
H514        H  0.77641059  0.46987247  0.45537346     0.26900
N515        N  0.54293314  0.79151846  0.44823761    -0.35900
N516        N  0.50681796  0.80985067  0.49334698    -0.56400
N517        N  0.46073516  0.81464833  0.45124009    -0.35900
N518        N  0.49774368  0.79552857  0.40571919    -0.56400
C519        C  0.55765387  0.78312609  0.47241314     0.27700
C520        C  0.55417328  0.77904529  0.42446741     0.27700
C521        C  0.44795044  0.81398248  0.47760432     0.27700
C522        C  0.44278251  0.80462393  0.43062265     0.27700
C523        C  0.53077392  0.80983273  0.50893675     0.36300
C524        C  0.48860100  0.82477695  0.50920559     0.36300
C525        C  0.51906691  0.79383764  0.38689614     0.36300
C526        C  0.47519267  0.80214088  0.38913401     0.36300
C527        C  0.57872163  0.76516865  0.46379939    -0.21100
C528        C  0.57666591  0.76278071  0.43338577    -0.21100
C529        C  0.42131727  0.80398629  0.47364298    -0.21100
C530        C  0.41808475  0.79799657  0.44389980    -0.21100
C531        C  0.52805390  0.82530921  0.53471346    -0.22200
C532        C  0.50122358  0.83488152  0.53485921    -0.22200
C533        C  0.51007990  0.79962363  0.35820902    -0.22200
C534        C  0.48214776  0.80465003  0.35960475    -0.22200
C535        C  0.55379814  0.79329035  0.50150425    -0.17600
C536        C  0.54563600  0.78376187  0.39486927    -0.17600
C537        C  0.44807765  0.80250447  0.40003758    -0.17500
C538        C  0.45992561  0.82231804  0.50496657    -0.17500
H539        H  0.59432975  0.75538855  0.47785539     0.15400
H540        H  0.59025508  0.75064878  0.41940561     0.15400
H541        H  0.40589430  0.80109574  0.49042974     0.15400
H542        H  0.39969000  0.78975351  0.43324801     0.15400
H543        H  0.54334701  0.82819723  0.55217660     0.13600
H544        H  0.49147539  0.84609152  0.55281467     0.13600
H545        H  0.52214877  0.79913087  0.33823370     0.13600
H546        H  0.46840681  0.80899167  0.34099407     0.13600
H547        H  0.52838329  0.80763403  0.44718303     0.26900
H548        H  0.47995884  0.82341750  0.44729843     0.26900
N549        N  0.28744176  0.46470351  0.48331187    -0.35900
N550        N  0.29706887  0.51581336  0.51650011    -0.56400
N551        N  0.30334011  0.54468179  0.46018825    -0.35900
N552        N  0.29664772  0.49274034  0.42715539    -0.56400
C553        C  0.28880491  0.45463252  0.51120871     0.27700
C554        C  0.28854280  0.44250397  0.46481886     0.27700
C555        C  0.30731806  0.56638468  0.47891572     0.27700
C556        C  0.30698933  0.55423699  0.43242470     0.27700
C557        C  0.28820044  0.49968198  0.53885181     0.36300
C558        C  0.29591726  0.54239650  0.52646449     0.36300
C559        C  0.28765347  0.46790955  0.41669328     0.36300
C560        C  0.29493905  0.51078575  0.40420086     0.36300
C561        C  0.29089849  0.42562704  0.51042528    -0.21100
C562        C  0.29074089  0.41797260  0.48106894    -0.21100
C563        C  0.31437625  0.58996533  0.46291801    -0.21100
C564        C  0.31431659  0.58226852  0.43357228    -0.21100
C565        C  0.28283331  0.51578884  0.56366452    -0.22200
C566        C  0.28760539  0.54292593  0.55579505    -0.22200
C567        C  0.28176881  0.46977259  0.38657570    -0.22200
C568        C  0.28633226  0.49699394  0.37867510    -0.22200
C569        C  0.28455994  0.47059829  0.53709399    -0.17600
C570        C  0.28403041  0.44366683  0.43398343    -0.17600
C571        C  0.29943173  0.53987244  0.40615189    -0.17500
C572        C  0.30128924  0.56644239  0.50940929    -0.17500
H573        H  0.29143166  0.41136466  0.52903901     0.15400
H574        H  0.29113744  0.39673093  0.47265386     0.15400
H575        H  0.31786677  0.61089238  0.47136243     0.15400
H576        H  0.31763332  0.59617338  0.41507285     0.15400
H577        H  0.27555644  0.50879842  0.58494267     0.13600
H578        H  0.28474019  0.56101670  0.56993743     0.13600
H579        H  0.27417685  0.45345283  0.37197867     0.13600
H580        H  0.28286408  0.50580755  0.35683738     0.13600
H581        H  0.28103971  0.48471554  0.47741218     0.26900
H582        H  0.29430747  0.52596065  0.46558241     0.26900
N583        N  0.44387280  0.20701319  0.46174847    -0.35900
N584        N  0.48242148  0.20794271  0.41294174    -0.56400
N585        N  0.52719700  0.21616565  0.45412687    -0.35900
N586        N  0.48909104  0.21663130  0.50324745    -0.56400
C587        C  0.42653678  0.21064896  0.43823052     0.27700
C588        C  0.42993352  0.21469696  0.48624945     0.27700
C589        C  0.53966814  0.22234029  0.42834034     0.27700
C590        C  0.54359207  0.22564877  0.47637443     0.27700
C591        C  0.45957609  0.19925383  0.39840339     0.36300
C592        C  0.50365150  0.20372573  0.39443703     0.36300
C593        C  0.46875700  0.21179001  0.52274149     0.36300
C594        C  0.51318691  0.21521827  0.51874054     0.36300
C595        C  0.40116745  0.22036945  0.44793182    -0.21100
C596        C  0.40328094  0.22283479  0.47827039    -0.21100
C597        C  0.56426828  0.23605003  0.43430222    -0.21100
C598        C  0.56678812  0.23807175  0.46467725    -0.21100
C599        C  0.46627624  0.18937023  0.37047988    -0.22200
C600        C  0.49438019  0.19178447  0.36814649    -0.22200
C601        C  0.47992912  0.20775515  0.55088079    -0.22200
C602        C  0.50812439  0.20970060  0.54830950    -0.22200
C603        C  0.43259537  0.20389462  0.40848958    -0.17600
C604        C  0.44020368  0.21308079  0.51571412    -0.17600
C605        C  0.53947632  0.22060675  0.50681785    -0.17500
C606        C  0.53050339  0.21370474  0.39985116    -0.17500
H607        H  0.38290742  0.22487416  0.43458515     0.15400
H608        H  0.38698256  0.22968971  0.49280335     0.15400
H609        H  0.57918479  0.24319024  0.41845069     0.15400
H610        H  0.58404808  0.24700388  0.47681391     0.15400
H611        H  0.45228054  0.18203774  0.35327271     0.13600
H612        H  0.50638564  0.18677842  0.34878451     0.13600
H613        H  0.46889606  0.20398702  0.57113820     0.13600
H614        H  0.52311831  0.20777532  0.56624478     0.13600
H615        H  0.46307995  0.19711538  0.46141130     0.26900
H616        H  0.51060653  0.20277104  0.45668513     0.26900
C617        C  0.66201357  0.75650033  0.58140379    -0.11100
C618        C  0.64080342  0.77515807  0.58893987     0.11500
C619        C  0.64179365  0.78920438  0.61653184    -0.02900
C620        C  0.66520250  0.78535717  0.63506332    -0.05700
C621        C  0.68695972  0.76716513  0.62729921    -0.16400
C622        C  0.68523450  0.75220900  0.60004502     0.02500
C623        C  0.61839976  0.78033039  0.56674556     0.12400
C624        C  0.61784600  0.80746076  0.62660579     0.63000
H625        H  0.66649373  0.79624280  0.65610936     0.12500
C626        C  0.70842871  0.73320845  0.58959303     0.55200
H627        H  0.66046147  0.74583438  0.56024531     0.08200
C628        C  0.62130268  0.80030897  0.54385275    -0.05600
C629        C  0.59958720  0.80392495  0.52319927    -0.06300
C630        C  0.57555062  0.78795158  0.52447617    -0.15900
C631        C  0.57272996  0.76760804  0.54707290    -0.01500
C632        C  0.59438952  0.76418696  0.56799827    -0.09000
C633        C  0.64740746  0.81741686  0.54094661     0.65300
H634        H  0.60122469  0.81915852  0.50557095     0.10700
C635        C  0.54733263  0.74924284  0.54864580     0.63600
H636        H  0.59289512  0.74875406  0.58544460     0.08100
F637        F  0.70326751  0.72265176  0.56146759    -0.19400
F638        F  0.71174116  0.71065965  0.60852872    -0.15600
F639        F  0.73260970  0.74829317  0.58868782    -0.19100
F640        F  0.59482662  0.79097919  0.63026857    -0.22500
F641        F  0.61174139  0.82790030  0.60580530    -0.24000
F642        F  0.62368009  0.82067108  0.65327935    -0.18000
F643        F  0.54945111  0.73000224  0.57151752    -0.20400
F644        F  0.54403332  0.73461686  0.52236972    -0.21600
F645        F  0.52408979  0.76553673  0.55332505    -0.18800
F646        F  0.64532397  0.83643200  0.51787213    -0.18900
F647        F  0.66954817  0.79978968  0.53554119    -0.22700
F648        F  0.65254522  0.83224807  0.56673608    -0.24300
C649        C  0.79830746  0.66024552  0.59225623    -0.11100
C650        C  0.79585683  0.63121133  0.59641620     0.11500
C651        C  0.79256906  0.62064996  0.62541306    -0.02900
C652        C  0.78897144  0.63968844  0.64888081    -0.05700
C653        C  0.78857785  0.66882673  0.64439230    -0.16400
C654        C  0.79512116  0.67936466  0.61597011     0.02500
C655        C  0.79562047  0.61214530  0.57014918     0.12400
C656        C  0.79218923  0.58933848  0.63142284     0.63000
H657        H  0.78517065  0.63180778  0.67090748     0.12500
C658        C  0.80026545  0.71030264  0.61107533     0.55200
H659        H  0.80212975  0.66782451  0.57010707     0.08200
C660        C  0.77088541  0.60656818  0.55407281    -0.05600
C661        C  0.77106700  0.58558104  0.53203890    -0.06300
C662        C  0.79505895  0.57008221  0.52584256    -0.15900
C663        C  0.82007344  0.57651892  0.54097702    -0.01500
C664        C  0.81998753  0.59780446  0.56271660    -0.09000
C665        C  0.74429241  0.62230014  0.56078822     0.65300
H666        H  0.75224941  0.58047669  0.52000388     0.10700
C667        C  0.84653015  0.56051118  0.53451609     0.63600
H668        H  0.83874211  0.60270661  0.57496169     0.08100
F669        F  0.77628063  0.72553944  0.61481424    -0.19400
F670        F  0.80964566  0.71554246  0.58281555    -0.15600
F671        F  0.82006857  0.71951229  0.63117226    -0.19100
F672        F  0.81678604  0.57725355  0.62266770    -0.22500
F673        F  0.77061713  0.57707803  0.61591225    -0.24000
F674        F  0.78899504  0.58357467  0.66121649    -0.18000
F675        F  0.86847473  0.56984214  0.55177365    -0.20400
F676        F  0.85330420  0.56383370  0.50510316    -0.21600
F677        F  0.84303221  0.53234004  0.54024291    -0.18800
F678        F  0.72277785  0.61416934  0.54223755    -0.18900
F679        F  0.74807161  0.65073735  0.55706295    -0.22700
F680        F  0.73668443  0.61730624  0.58968800    -0.24300
C681        C  0.67205486  0.61897749  0.71096175    -0.11100
C682        C  0.64697063  0.63059131  0.72009923     0.11500
C683        C  0.64484566  0.65961328  0.72617113    -0.02900
C684        C  0.66849268  0.67617216  0.72312271    -0.05700
C685        C  0.69377031  0.66443789  0.71437077    -0.16400
C686        C  0.69549841  0.63553476  0.70735741     0.02500
C687        C  0.62348343  0.61139749  0.72334965     0.12400
C688        C  0.61780134  0.67291184  0.73576668     0.63000
H689        H  0.66758103  0.69836947  0.72806559     0.12500
C690        C  0.72151613  0.62240919  0.69489845     0.55200
H691        H  0.67306236  0.59666757  0.70661272     0.08200
C692        C  0.60841729  0.60134947  0.69845686    -0.05600
C693        C  0.58766457  0.58155705  0.70302754    -0.06300
C694        C  0.58199261  0.57159500  0.73146725    -0.15900
C695        C  0.59671635  0.58197951  0.75639491    -0.01500
C696        C  0.61757781  0.60166009  0.75182471    -0.09000
C697        C  0.61474031  0.61090261  0.66720799     0.65300
H698        H  0.57590785  0.57330632  0.68440195     0.10700
C699        C  0.59046533  0.57209421  0.78750691     0.63600
H700        H  0.62974954  0.60938804  0.77039983     0.08100
F701        F  0.71690085  0.59560109  0.68427466    -0.19400
F702        F  0.74184406  0.62082236  0.71669018    -0.15600
F703        F  0.73064592  0.63842278  0.67158647    -0.19100
F704        F  0.60986957  0.66170061  0.76249153    -0.22500
F705        F  0.59740965  0.66794022  0.71468253    -0.24000
F706        F  0.62005336  0.70161667  0.73932667    -0.18000
F707        F  0.60642343  0.58571620  0.80868483    -0.20400
F708        F  0.59572546  0.54366201  0.78972871    -0.21600
F709        F  0.56303517  0.57725260  0.79376647    -0.18800
F710        F  0.59505954  0.60176398  0.64691246    -0.18900
F711        F  0.64010857  0.60029224  0.65889849    -0.22700
F712        F  0.61535313  0.63981652  0.66588704    -0.24300
C713        C  0.78021895  0.37258518  0.63549636    -0.11100
C714        C  0.77779979  0.36314515  0.60626040     0.11500
C715        C  0.77528959  0.33417813  0.60046589    -0.02900
C716        C  0.77224517  0.31578145  0.62454469    -0.05700
C717        C  0.77301495  0.32527811  0.65416636    -0.16400
C718        C  0.77832872  0.35424605  0.65974746     0.02500
C719        C  0.77855421  0.38434518  0.58225344     0.12400
C720        C  0.77661310  0.32280074  0.56905113     0.63000
H721        H  0.76920790  0.29368589  0.62030092     0.12500
C722        C  0.78147971  0.36639197  0.69081262     0.55200
H723        H  0.78321307  0.39480044  0.63905785     0.08200
C724        C  0.75424882  0.39763106  0.57117192    -0.05600
C725        C  0.75653217  0.41706294  0.54787439    -0.06300
C726        C  0.78236590  0.42467275  0.53685981    -0.15900
C727        C  0.80675636  0.41314433  0.54984082    -0.01500
C728        C  0.80436560  0.39267266  0.57202168    -0.09000
C729        C  0.72627968  0.39200451  0.58468658     0.65300
H730        H  0.73821098  0.42686208  0.53833813     0.10700
C731        C  0.83515929  0.42250756  0.54041684     0.63600
H732        H  0.82268489  0.38298290  0.58170072     0.08100
F733        F  0.75754714  0.36233727  0.70646125    -0.19400
F734        F  0.78649957  0.39489693  0.69043612    -0.15600
F735        F  0.80358392  0.35368480  0.70538490    -0.19100
F736        F  0.80184900  0.32936577  0.55709090    -0.22500
F737        F  0.75585680  0.33444460  0.55158087    -0.24000
F738        F  0.77380703  0.29397363  0.56823079    -0.18000
F739        F  0.83684797  0.45137525  0.54185308    -0.20400
F740        F  0.83997024  0.41383485  0.51172937    -0.21600
F741        F  0.85581619  0.41147121  0.55858498    -0.18800
F742        F  0.70544644  0.40762391  0.57115362    -0.18900
F743        F  0.72701198  0.39899296  0.61444132    -0.22700
F744        F  0.71968507  0.36402256  0.58189018    -0.24300
C745        C  0.65675916  0.24027924  0.58001859    -0.11100
C746        C  0.63452286  0.22279560  0.58643187     0.11500
C747        C  0.63582879  0.20549007  0.61191654    -0.02900
C748        C  0.65896668  0.20742838  0.63100427    -0.05700
C749        C  0.68073014  0.22573175  0.62521987    -0.16400
C750        C  0.67993314  0.24220880  0.59910535     0.02500
C751        C  0.61015221  0.22306767  0.56597738     0.12400
C752        C  0.61328463  0.18460015  0.61864456     0.63000
H753        H  0.66032739  0.19450025  0.65068349     0.12500
C754        C  0.70362778  0.26124310  0.59103456     0.55200
H755        H  0.65564703  0.25265538  0.55994074     0.08200
C756        C  0.59067554  0.24544812  0.56559210    -0.05600
C757        C  0.56797615  0.24408442  0.54577000    -0.06300
C758        C  0.56406114  0.22093883  0.52704520    -0.15900
C759        C  0.58321453  0.19834928  0.52789608    -0.01500
C760        C  0.60638851  0.20017478  0.54690689    -0.09000
C761        C  0.59366903  0.27044088  0.58625066     0.65300
H762        H  0.55296795  0.26101969  0.54474989     0.10700
C763        C  0.57881110  0.17214113  0.50933090     0.63600
H764        H  0.62176910  0.18357977  0.54719394     0.08100
F765        F  0.70473853  0.28365380  0.61044961    -0.19400
F766        F  0.70055675  0.27173923  0.56257964    -0.15600
F767        F  0.72834925  0.24652962  0.59249479    -0.19100
F768        F  0.61392101  0.16306740  0.59814326    -0.22500
F769        F  0.58764769  0.19755791  0.61745808    -0.24000
F770        F  0.61673239  0.17296430  0.64655391    -0.18000
F771        F  0.58128106  0.17834685  0.47961002    -0.20400
F772        F  0.55277270  0.16159308  0.51423437    -0.21600
F773        F  0.59792553  0.15137733  0.51636482    -0.18800
F774        F  0.57104500  0.28831120  0.58431310    -0.18900
F775        F  0.61683044  0.28553268  0.57906850    -0.22700
F776        F  0.59616510  0.26137208  0.61526592    -0.24300
C777        C  0.63381873  0.33284080  0.72793043    -0.11100
C778        C  0.63993907  0.36139284  0.73117201     0.11500
C779        C  0.66786471  0.36980170  0.73326423    -0.02900
C780        C  0.68872345  0.34930006  0.73089649    -0.05700
C781        C  0.68278408  0.32079948  0.72622216    -0.16400
C782        C  0.65476736  0.31231580  0.72486546     0.02500
C783        C  0.61678141  0.38221060  0.73159733     0.12400
C784        C  0.67569290  0.40032672  0.73775451     0.63000
H785        H  0.71010734  0.35557075  0.73227195     0.12500
C786        C  0.64687423  0.28186098  0.72063556     0.55200
H787        H  0.61231266  0.32684775  0.72719733     0.08200
C788        C  0.60267663  0.39075740  0.70529585    -0.05600
C789        C  0.58267611  0.41235226  0.70698794    -0.06300
C790        C  0.57622230  0.42515487  0.73407635    -0.15900
C791        C  0.58948509  0.41576682  0.76046757    -0.01500
C792        C  0.60948637  0.39425080  0.75878267    -0.09000
C793        C  0.60877721  0.37709820  0.67564186     0.65300
H794        H  0.57189449  0.41952004  0.68717354     0.10700
C795        C  0.58243873  0.42856459  0.79023129     0.63600
H796        H  0.61996239  0.38687609  0.77869604     0.08100
F797        F  0.61877380  0.27794241  0.72363865    -0.19400
F798        F  0.66041612  0.26543448  0.74159674    -0.15600
F799        F  0.65396790  0.27302256  0.69254778    -0.19100
F800        F  0.66663227  0.40961419  0.76497324    -0.22500
F801        F  0.66378837  0.41663755  0.71563912    -0.24000
F802        F  0.70399715  0.40409078  0.73707302    -0.18000
F803        F  0.55470572  0.42486837  0.79571622    -0.20400
F804        F  0.58811703  0.45689329  0.79008461    -0.21600
F805        F  0.59749346  0.41636997  0.81320191    -0.18800
F806        F  0.59387187  0.38946841  0.65267361    -0.18900
F807        F  0.60179249  0.34910232  0.67644182    -0.22700
F808        F  0.63655371  0.37934007  0.66950441    -0.24300
C809        C  0.37304940  0.22698559  0.63891122    -0.11100
C810        C  0.36156936  0.22687500  0.61029226     0.11500
C811        C  0.33275410  0.23076827  0.60623955    -0.02900
C812        C  0.31651757  0.23639609  0.63126161    -0.05700
C813        C  0.32814238  0.23758253  0.66000284    -0.16400
C814        C  0.35701145  0.23256808  0.66396502     0.02500
C815        C  0.38085484  0.22381527  0.58517176     0.12400
C816        C  0.31930086  0.22882649  0.57569506     0.63000
H817        H  0.29450667  0.23995975  0.62856620     0.12500
C818        C  0.37139969  0.23445029  0.69409795     0.55200
H819        H  0.39509192  0.22342150  0.64128290     0.08200
C820        C  0.39592626  0.24694469  0.57455328    -0.05600
C821        C  0.41525481  0.24245104  0.55206158    -0.06300
C822        C  0.42008890  0.21570686  0.54027226    -0.15900
C823        C  0.40527939  0.19250729  0.55108729    -0.01500
C824        C  0.38584616  0.19698502  0.57357172    -0.09000
C825        C  0.39194195  0.27616418  0.58731241     0.65300
H826        H  0.42691530  0.25980947  0.54345580     0.10700
C827        C  0.41025304  0.16322960  0.53905138     0.63600
H828        H  0.37451763  0.17954862  0.58250183     0.08100
F829        F  0.36542014  0.25996007  0.70715213    -0.19400
F830        F  0.39983462  0.23230311  0.69194960    -0.15600
F831        F  0.36278871  0.21294599  0.71211984    -0.19100
F832        F  0.32354340  0.20231198  0.56418298    -0.22500
F833        F  0.33059901  0.24829262  0.55690103    -0.24000
F834        F  0.29110668  0.23374158  0.57660594    -0.18000
F835        F  0.39457287  0.14347046  0.55341317    -0.20400
F836        F  0.43777896  0.15593711  0.54280032    -0.21600
F837        F  0.40339960  0.16238263  0.50921396    -0.18800
F838        F  0.40709072  0.29590524  0.57230105    -0.18900
F839        F  0.40038996  0.27652963  0.61670493    -0.22700
F840        F  0.36444381  0.28402150  0.58542109    -0.24300
C841        C  0.23801730  0.43215370  0.58892076    -0.11100
C842        C  0.25768076  0.41783983  0.60628937     0.11500
C843        C  0.28611236  0.42417007  0.60409341    -0.02900
C844        C  0.29406725  0.44349154  0.58256726    -0.05700
C845        C  0.27452287  0.45575089  0.56336300    -0.16400
C846        C  0.24599407  0.45123907  0.56727184     0.02500
C847        C  0.24841268  0.39234424  0.62112572     0.12400
C848        C  0.30798020  0.40978508  0.62339942     0.63000
H849        H  0.31570066  0.44783554  0.57918421     0.12500
C850        C  0.22423303  0.46560581  0.54785960     0.55200
H851        H  0.21647512  0.42669843  0.59103758     0.08200
C852        C  0.23708790  0.39247331  0.64977011    -0.05600
C853        C  0.23045608  0.36662886  0.66253473    -0.06300
C854        C  0.23385029  0.34155604  0.64673072    -0.15900
C855        C  0.24232254  0.34185735  0.61702460    -0.01500
C856        C  0.24977777  0.36745217  0.60466192    -0.09000
C857        C  0.23146043  0.41962947  0.66622011     0.65300
H858        H  0.22345474  0.36567063  0.68518869     0.10700
C859        C  0.24328849  0.31516271  0.59871421     0.63600
H860        H  0.25726256  0.36823458  0.58217362     0.08100
F861        F  0.19774763  0.45830790  0.55575603    -0.19400
F862        F  0.22776339  0.45817331  0.51854916    -0.15600
F863        F  0.22645782  0.49432855  0.55063217    -0.19100
F864        F  0.30786448  0.38121664  0.61845685    -0.22500
F865        F  0.30280109  0.41487336  0.65292058    -0.24000
F866        F  0.33420688  0.41947186  0.61756797    -0.18000
F867        F  0.24926657  0.32049566  0.56937873    -0.20400
F868        F  0.21785988  0.30222337  0.59952226    -0.21600
F869        F  0.26327101  0.29710268  0.61002699    -0.18800
F870        F  0.22201428  0.41480558  0.69453069    -0.18900
F871        F  0.21152709  0.43490902  0.65089711    -0.22700
F872        F  0.25516192  0.43539303  0.66858616    -0.24300
C873        C  0.34129854  0.37938083  0.72916119    -0.11100
C874        C  0.36890474  0.37249236  0.73547313     0.11500
C875        C  0.37651148  0.34445866  0.74149720    -0.02900
C876        C  0.35589615  0.32406867  0.74119693    -0.05700
C877        C  0.32816103  0.33034170  0.73361288    -0.16400
C878        C  0.32073561  0.35874210  0.72714087     0.02500
C879        C  0.38964577  0.39504987  0.73566600     0.12400
C880        C  0.40645292  0.33592895  0.74737690     0.63000
H881        H  0.36175781  0.30266545  0.74614477     0.12500
C882        C  0.29185780  0.36757893  0.71711453     0.55200
H883        H  0.33623046  0.40115561  0.72489622     0.08200
C884        C  0.40080294  0.40564551  0.70917547    -0.05600
C885        C  0.42186683  0.42561645  0.71131963    -0.06300
C886        C  0.43211246  0.43469728  0.73890233    -0.15900
C887        C  0.42093696  0.42410758  0.76536283    -0.01500
C888        C  0.39924769  0.40486757  0.76320542    -0.09000
C889        C  0.39075151  0.39567136  0.67890504     0.65300
H890        H  0.43083336  0.43413292  0.69146927     0.10700
C891        C  0.43225880  0.43259863  0.79560274     0.63600
H892        H  0.39010402  0.39657059  0.78306484     0.08100
F893        F  0.28937900  0.39630992  0.71365950    -0.19400
F894        F  0.27269345  0.35949280  0.73774941    -0.15600
F895        F  0.28591481  0.35541837  0.68997939    -0.19100
F896        F  0.41614931  0.34839618  0.77310613    -0.22500
F897        F  0.42257585  0.34414990  0.72398914    -0.24000
F898        F  0.40950969  0.30722687  0.75055527    -0.18000
F899        F  0.41924059  0.41867096  0.81828033    -0.20400
F900        F  0.42847746  0.46102718  0.79985829    -0.21600
F901        F  0.46013501  0.42629069  0.79757186    -0.18800
F902        F  0.40555589  0.40753044  0.65620436    -0.18900
F903        F  0.36328977  0.40292875  0.67477768    -0.22700
F904        F  0.39355196  0.36689883  0.67678050    -0.24300
C905        C  0.91425346  0.88903137  0.74026057    -0.11100
C906        C  0.90979766  0.87689553  0.71229795     0.11500
C907        C  0.92650424  0.88434293  0.68815431    -0.02900
C908        C  0.94775224  0.90358398  0.69307829    -0.05700
C909        C  0.95173277  0.91625687  0.72081056    -0.16400
C910        C  0.93503628  0.90893572  0.74493009     0.02500
C911        C  0.88602984  0.85812828  0.70827460     0.12400
C912        C  0.92106620  0.87310605  0.65708884     0.63000
H913        H  0.96059366  0.91008009  0.67493636     0.12500
C914        C  0.93904217  0.92238934  0.77516054     0.55200
H915        H  0.90077646  0.88332955  0.75815389     0.08200
C916        C  0.88704519  0.82972228  0.71668450    -0.05600
C917        C  0.86379693  0.81317480  0.71089668    -0.06300
C918        C  0.83933633  0.82429674  0.69786295    -0.15900
C919        C  0.83859781  0.85315108  0.68961801    -0.01500
C920        C  0.86206138  0.86945420  0.69534435    -0.09000
C921        C  0.91222125  0.81720239  0.73246710     0.65300
H922        H  0.86451990  0.79135938  0.71731962     0.10700
C923        C  0.81347047  0.86734027  0.67538648     0.63600
H924        H  0.86203001  0.89151798  0.68979689     0.08100
F925        F  0.92010569  0.91278609  0.79534555    -0.19400
F926        F  0.93588367  0.95112307  0.77294189    -0.15600
F927        F  0.96525301  0.91626868  0.78600977    -0.19100
F928        F  0.89629666  0.88377500  0.64621245    -0.22500
F929        F  0.91982604  0.84419151  0.65754402    -0.24000
F930        F  0.94158518  0.88066398  0.63772900    -0.18000
F931        F  0.81813238  0.89528562  0.66916715    -0.20400
F932        F  0.79138462  0.86619546  0.69439603    -0.21600
F933        F  0.80682977  0.85430210  0.64885241    -0.18800
F934        F  0.90983198  0.78856647  0.73641587    -0.18900
F935        F  0.91531101  0.82942461  0.76010514    -0.22700
F936        F  0.93569682  0.82192483  0.71624030    -0.24300
C937        C  0.90214295  0.08527393  0.72745379    -0.11100
C938        C  0.89917582  0.09959633  0.70043110     0.11500
C939        C  0.91966591  0.09623486  0.67861585    -0.02900
C940        C  0.94141196  0.07687372  0.68371700    -0.05700
C941        C  0.94399404  0.06196268  0.71045214    -0.16400
C942        C  0.92464429  0.06698586  0.73316069     0.02500
C943        C  0.87593287  0.12017344  0.69706855     0.12400
C944        C  0.91874486  0.11346282  0.65038994     0.63000
H945        H  0.95670383  0.07322643  0.66686020     0.12500
C946        C  0.92861701  0.05426227  0.76375290     0.55200
H947        H  0.88690969  0.08907426  0.74433983     0.08200
C948        C  0.85045905  0.11417294  0.68259630    -0.05600
C949        C  0.82970770  0.13505628  0.68159255    -0.06300
C950        C  0.83313193  0.16176250  0.69459927    -0.15900
C951        C  0.85915305  0.16775953  0.70864879    -0.01500
C952        C  0.87974551  0.14667012  0.70972566    -0.09000
C953        C  0.84377542  0.08639962  0.66774554     0.65300
H954        H  0.81031396  0.13006433  0.67058755     0.10700
C955        C  0.86578775  0.19591753  0.72280260     0.63600
H956        H  0.89939283  0.15062634  0.72067128     0.08100
F957        F  0.92706379  0.02542370  0.76226311    -0.19400
F958        F  0.90876252  0.06363887  0.78325060    -0.15600
F959        F  0.95422703  0.06167512  0.77510639    -0.19100
F960        F  0.91849385  0.14168279  0.65737683    -0.22500
F961        F  0.89523848  0.10724106  0.63404316    -0.24000
F962        F  0.94142470  0.10821582  0.63288122    -0.18000
F963        F  0.89267391  0.19701868  0.73363280    -0.20400
F964        F  0.84851213  0.20070662  0.74638641    -0.21600
F965        F  0.86271823  0.21705358  0.70205436    -0.18800
F966        F  0.83935878  0.09083097  0.63774518    -0.18900
F967        F  0.81989077  0.07572780  0.67957519    -0.22700
F968        F  0.86442267  0.06646880  0.67115154    -0.24300
C969        C  0.12510339  0.09230815  0.71948522    -0.11100
C970        C  0.12243602  0.10936582  0.69432158     0.11500
C971        C  0.10351619  0.10222294  0.67140711    -0.02900
C972        C  0.08567261  0.07963057  0.67588189    -0.05700
C973        C  0.08731086  0.06344182  0.70176612    -0.16400
C974        C  0.10799705  0.06901972  0.72348221     0.02500
C975        C  0.13995202  0.13454143  0.69256717     0.12400
C976        C  0.10267213  0.11804814  0.64223822     0.63000
H977        H  0.07018356  0.07438609  0.65925499     0.12500
C978        C  0.11159715  0.05085895  0.75092917     0.55200
H979        H  0.14049125  0.09770808  0.73616493     0.08200
C980        C  0.13170873  0.16047004  0.70501209    -0.05600
C981        C  0.14966673  0.18336540  0.70303176    -0.06300
C982        C  0.17559586  0.18080280  0.68968983    -0.15900
C983        C  0.18357096  0.15487324  0.67686534    -0.01500
C984        C  0.16555997  0.13203423  0.67879622    -0.09000
C985        C  0.10443117  0.16364263  0.72099328     0.65300
H986        H  0.14400243  0.20327708  0.71286917     0.10700
C987        C  0.21046162  0.15151005  0.66032673     0.63600
H988        H  0.17135686  0.11186094  0.66967134     0.08100
F989        F  0.11797265  0.02365813  0.74286710    -0.19400
F990        F  0.08746754  0.05099703  0.76688428    -0.15600
F991        F  0.13274502  0.06028762  0.76927224    -0.19100
F992        F  0.12810080  0.11593520  0.62889396    -0.22500
F993        F  0.09654662  0.14599502  0.64698928    -0.24000
F994        F  0.08301926  0.10736307  0.62280469    -0.18000
F995        F  0.21195227  0.12603060  0.64571659    -0.20400
F996        F  0.23265044  0.15290926  0.67989316    -0.21600
F997        F  0.21249969  0.17250362  0.63940120    -0.18800
F998        F  0.10037547  0.19067388  0.73130343    -0.18900
F999        F  0.10402926  0.14573620  0.74501416    -0.22700
F1000       F  0.08266182  0.15724231  0.70208805    -0.24300
C1001       C  0.30782531  0.63054822  0.55794090    -0.11100
C1002       C  0.27983966  0.63804277  0.55993541     0.11500
C1003       C  0.25963639  0.62442364  0.54236794    -0.02900
C1004       C  0.26821109  0.60271302  0.52374469    -0.05700
C1005       C  0.29579625  0.59361170  0.52370518    -0.16400
C1006       C  0.31610729  0.60761714  0.54070152     0.02500
C1007       C  0.27193408  0.65842712  0.58266677     0.12400
C1008       C  0.22912560  0.63186008  0.54446208     0.63000
H1009       H  0.25317847  0.59127596  0.51056320     0.12500
C1010       C  0.34576165  0.59709623  0.54206888     0.55200
H1011       H  0.32276776  0.64152038  0.57167864     0.08200
C1012       C  0.27020021  0.65056749  0.61276784    -0.05600
C1013       C  0.26331787  0.67121680  0.63337444    -0.06300
C1014       C  0.25809866  0.69893317  0.62471233    -0.15900
C1015       C  0.25787450  0.70632807  0.59439083    -0.01500
C1016       C  0.26537547  0.68580063  0.57377093    -0.09000
C1017       C  0.27615809  0.62079446  0.62323305     0.65300
H1018       H  0.26322181  0.66617958  0.65677759     0.10700
C1019       C  0.24984773  0.73496922  0.58245332     0.63600
H1020       H  0.26626919  0.69119225  0.55047130     0.08100
F1021       F  0.34675333  0.57090757  0.55511005    -0.19400
F1022       F  0.36257226  0.61479115  0.55847728    -0.15600
F1023       F  0.35622803  0.59516178  0.51382075    -0.19100
F1024       F  0.22465038  0.65902599  0.53491917    -0.22500
F1025       F  0.22059415  0.62953753  0.57345145    -0.24000
F1026       F  0.21288240  0.61434460  0.52719048    -0.18000
F1027       F  0.22698607  0.73221160  0.56394003    -0.20400
F1028       F  0.27131914  0.74558474  0.56618523    -0.21600
F1029       F  0.24336974  0.75401402  0.60439443    -0.18800
F1030       F  0.27057683  0.61748855  0.65302285    -0.18900
F1031       F  0.30366924  0.61419895  0.61913826    -0.22700
F1032       F  0.25999956  0.60205063  0.60749103    -0.24300
C1033       C  0.40643128  0.83290081  0.56482851    -0.11100
C1034       C  0.41197760  0.80910945  0.58220506     0.11500
C1035       C  0.43407995  0.79090175  0.57518005    -0.02900
C1036       C  0.44913744  0.79648246  0.54979971    -0.05700
C1037       C  0.44342525  0.81999734  0.53206459    -0.16400
C1038       C  0.42243539  0.83921253  0.54012590     0.02500
C1039       C  0.39272396  0.80215999  0.60588773     0.12400
C1040       C  0.44148210  0.76542836  0.59398271     0.63000
H1041       H  0.46538964  0.78215528  0.54316029     0.12500
C1042       C  0.41621742  0.86644930  0.52398574     0.55200
H1043       H  0.38935443  0.84660310  0.57058105     0.08200
C1044       C  0.39426143  0.81455759  0.63422475    -0.05600
C1045       C  0.37556326  0.80582152  0.65571645    -0.06300
C1046       C  0.35541291  0.78540932  0.64951607    -0.15900
C1047       C  0.35412130  0.77304286  0.62071508    -0.01500
C1048       C  0.37271894  0.78210104  0.59937518    -0.09000
C1049       C  0.41522191  0.83716991  0.64145598     0.65300
H1050       H  0.37627083  0.81538585  0.67747761     0.10700
C1051       C  0.33387656  0.75008488  0.61215749     0.63600
H1052       H  0.37207249  0.77337475  0.57719380     0.08100
F1053       F  0.41782720  0.88841916  0.54397145    -0.19400
F1054       F  0.38973701  0.86563392  0.51212432    -0.15600
F1055       F  0.43434700  0.87179850  0.50139299    -0.19100
F1056       F  0.42043363  0.74612374  0.59245011    -0.22500
F1057       F  0.44562251  0.77332854  0.62316954    -0.24000
F1058       F  0.46545598  0.75240708  0.58453384    -0.18000
F1059       F  0.30730149  0.76084997  0.61145711    -0.20400
F1060       F  0.33583077  0.72833693  0.63231282    -0.21600
F1061       F  0.33907638  0.73903558  0.58437418    -0.18800
F1062       F  0.41438885  0.84514413  0.67093478    -0.18900
F1063       F  0.40975425  0.86055052  0.62425865    -0.22700
F1064       F  0.44163759  0.82763359  0.63575936    -0.24300
C1065       C  0.35600908  0.64870818  0.73909405    -0.11100
C1066       C  0.38444713  0.65299066  0.74298169     0.11500
C1067       C  0.39479193  0.68063370  0.74383021    -0.02900
C1068       C  0.37603321  0.70317559  0.74102934    -0.05700
C1069       C  0.34768308  0.69900231  0.73575025    -0.16400
C1070       C  0.33731037  0.67126941  0.73525281     0.02500
C1071       C  0.40303513  0.62803712  0.74302785     0.12400
C1072       C  0.42561340  0.68638952  0.74532196     0.63000
H1073       H  0.38367409  0.72443065  0.74110379     0.12500
C1074       C  0.30673397  0.66537429  0.73144339     0.55200
H1075       H  0.34870375  0.62734024  0.73825500     0.08200
C1076       C  0.41120738  0.61388661  0.76935346    -0.05600
C1077       C  0.42978456  0.59106191  0.76729556    -0.06300
C1078       C  0.43905075  0.58131312  0.73976748    -0.15900
C1079       C  0.42934350  0.59434689  0.71339055    -0.01500
C1080       C  0.41172233  0.61781311  0.71553332    -0.09000
C1081       C  0.39942912  0.62206958  0.79918084     0.65300
H1082       H  0.43700230  0.58034499  0.78711561     0.10700
C1083       C  0.43765615  0.58350630  0.68315523     0.63600
H1084       H  0.40457709  0.62853161  0.69567463     0.08100
F1085       F  0.29217951  0.67964817  0.75292094    -0.19400
F1086       F  0.30106842  0.63713365  0.73424332    -0.15600
F1087       F  0.29764988  0.67373232  0.70364921    -0.19100
F1088       F  0.43768631  0.67699880  0.71956356    -0.22500
F1089       F  0.43789156  0.67281296  0.76915005    -0.24000
F1090       F  0.43096748  0.71471580  0.74830196    -0.18000
F1091       F  0.42385397  0.59751751  0.66044696    -0.20400
F1092       F  0.43147260  0.55536758  0.68070008    -0.21600
F1093       F  0.46568643  0.58701320  0.67950209    -0.18800
F1094       F  0.41064141  0.60602991  0.82197151    -0.18900
F1095       F  0.37118658  0.61814736  0.79855485    -0.22700
F1096       F  0.40468445  0.64984496  0.80549931    -0.24300
C1097       C  0.11402207  0.87890372  0.68271759    -0.11100
C1098       C  0.13272811  0.87438573  0.70629841     0.11500
C1099       C  0.13193908  0.89238218  0.73129869    -0.02900
C1100       C  0.11149300  0.91359822  0.73237563    -0.05700
C1101       C  0.09229601  0.91767216  0.70908950    -0.16400
C1102       C  0.09382157  0.90031123  0.68353145     0.02500
C1103       C  0.15262494  0.85033821  0.70462606     0.12400
C1104       C  0.15282920  0.88925929  0.75656331     0.63000
H1105       H  0.11025764  0.92724264  0.75151749     0.12500
C1106       C  0.07502994  0.90327174  0.65642831     0.55200
H1107       H  0.11511173  0.86537352  0.66343577     0.08200
C1108       C  0.14510124  0.82286184  0.71291829    -0.05600
C1109       C  0.16562737  0.80179623  0.71411518    -0.06300
C1110       C  0.19314306  0.80712261  0.70671725    -0.15900
C1111       C  0.20019099  0.83402394  0.69614737    -0.01500
C1112       C  0.17973724  0.85531770  0.69546721    -0.09000
C1113       C  0.11550383  0.81580809  0.72040768     0.65300
H1114       H  0.16041574  0.78091076  0.72137821     0.10700
C1115       C  0.22895436  0.84012502  0.68523071     0.63600
H1116       H  0.18492344  0.87626947  0.68841412     0.08100
F1117       F  0.06062893  0.87865849  0.65222453    -0.19400
F1118       F  0.09100873  0.90799063  0.63183018    -0.15600
F1119       F  0.05611500  0.92498018  0.65842165    -0.19100
F1120       F  0.17901957  0.89449087  0.74628815    -0.22500
F1121       F  0.15215963  0.86239013  0.76789524    -0.24000
F1122       F  0.14759574  0.90779441  0.77945939    -0.18000
F1123       F  0.22969039  0.86521286  0.66991745    -0.20400
F1124       F  0.23754122  0.81910530  0.66623757    -0.21600
F1125       F  0.24712598  0.84171596  0.70908195    -0.18800
F1126       F  0.11282387  0.78803646  0.72860678    -0.18900
F1127       F  0.09860315  0.82046016  0.69590722    -0.22700
F1128       F  0.10659371  0.83235487  0.74359293    -0.24300
C1129       C  0.18334627  0.70758047  0.83697988    -0.11100
C1130       C  0.15645728  0.70118411  0.82748725     0.11500
C1131       C  0.14916602  0.70271988  0.79711164    -0.02900
C1132       C  0.16933399  0.71089402  0.77707242    -0.05700
C1133       C  0.19626053  0.71801728  0.78638612    -0.16400
C1134       C  0.20361155  0.71592993  0.81692218     0.02500
C1135       C  0.13553656  0.69637552  0.85027016     0.12400
C1136       C  0.12004742  0.69647366  0.78593541     0.63000
H1137       H  0.16378720  0.71274018  0.75381967     0.12500
C1138       C  0.23239175  0.72250195  0.82856112     0.55200
H1139       H  0.18803777  0.70680313  0.86051595     0.08200
C1140       C  0.13252936  0.67032632  0.86468454    -0.05600
C1141       C  0.11208049  0.66797110  0.88627805    -0.06300
C1142       C  0.09472623  0.69065488  0.89322308    -0.15900
C1143       C  0.09785647  0.71672252  0.87872090    -0.01500
C1144       C  0.11864633  0.71913433  0.85778622    -0.09000
C1145       C  0.15055278  0.64522408  0.85704909     0.65300
H1146       H  0.10915500  0.64829896  0.89767814     0.10700
C1147       C  0.07985361  0.74250494  0.88371033     0.63600
H1148       H  0.12151480  0.73903613  0.84672474     0.08100
F1149       F  0.23562395  0.71575445  0.85826003    -0.19400
F1150       F  0.23722152  0.75082533  0.82562762    -0.15600
F1151       F  0.25181803  0.70734620  0.81291925    -0.19100
F1152       F  0.10169675  0.71606367  0.79693113    -0.22500
F1153       F  0.11225997  0.67011373  0.79499700    -0.24000
F1154       F  0.11809851  0.69724909  0.75530301    -0.18000
F1155       F  0.06077709  0.73938325  0.90584234    -0.20400
F1156       F  0.06571031  0.74878225  0.85765149    -0.21600
F1157       F  0.09645587  0.76492511  0.89125427    -0.18800
F1158       F  0.14342281  0.62168843  0.87298937    -0.18900
F1159       F  0.17790431  0.65108078  0.86338493    -0.22700
F1160       F  0.14775375  0.63895924  0.82725083    -0.24300
C1161       C  0.93084982  0.72951641  0.84864017    -0.11100
C1162       C  0.91378135  0.70793361  0.83827957     0.11500
C1163       C  0.91829240  0.68014529  0.84831124    -0.02900
C1164       C  0.93851808  0.67524061  0.87044705    -0.05700
C1165       C  0.95475164  0.69704879  0.88178137    -0.16400
C1166       C  0.95162407  0.72447036  0.87016960     0.02500
C1167       C  0.89071289  0.71499595  0.81753042     0.12400
C1168       C  0.90182628  0.65588537  0.83553984     0.63000
H1169       H  0.94176709  0.65436936  0.87927057     0.12500
C1170       C  0.97015494  0.74817207  0.88056428     0.55200
H1171       H  0.92743842  0.75043101  0.83999630     0.08200
C1172       C  0.86462767  0.72391455  0.82793532    -0.05600
C1173       C  0.84273336  0.72733747  0.80735212    -0.06300
C1174       C  0.84623049  0.72171553  0.77713386    -0.15900
C1175       C  0.87263535  0.71407337  0.76658630    -0.01500
C1176       C  0.89465735  0.71118419  0.78708611    -0.09000
C1177       C  0.85997039  0.72941822  0.86066360     0.65300
H1178       H  0.82244876  0.73363908  0.81479438     0.10700
C1179       C  0.87740975  0.70875911  0.73389374     0.63600
H1180       H  0.91492605  0.70479628  0.77967955     0.08100
F1181       F  0.96354334  0.77315114  0.86652317    -0.19400
F1182       F  0.99735094  0.74164370  0.87447464    -0.15600
F1183       F  0.96758504  0.75225624  0.91072229    -0.19100
F1184       F  0.90689611  0.65335854  0.80558594    -0.22500
F1185       F  0.87389621  0.66045049  0.83943827    -0.24000
F1186       F  0.90891722  0.63073305  0.84895887    -0.18000
F1187       F  0.90517395  0.70525323  0.72790979    -0.20400
F1188       F  0.86756536  0.73119434  0.71736035    -0.21600
F1189       F  0.86378963  0.68473371  0.72511497    -0.18800
F1190       F  0.83286799  0.73697832  0.86615194    -0.18900
F1191       F  0.87677588  0.75096679  0.87026870    -0.22700
F1192       F  0.86612116  0.70564087  0.87700676    -0.24300
C1193       C  0.73669706  0.83263337  0.81301381    -0.11100
C1194       C  0.73134129  0.86070447  0.80561848     0.11500
C1195       C  0.73039383  0.86874450  0.77550559    -0.12500
C1196       C  0.73599192  0.84848013  0.75371282    -0.05700
C1197       C  0.74292955  0.82051067  0.76089460    -0.16400
C1198       C  0.74227884  0.81219270  0.79118293     0.02500
C1199       C  0.72981240  0.88188170  0.82977849     0.12400
C1200       C  0.72504248  0.89900643  0.76643627     0.63000
H1201       H  0.73652046  0.85496201  0.73076141     0.12500
C1202       C  0.74736701  0.78211516  0.80079681     0.55200
H1203       H  0.73748849  0.82706569  0.83627047     0.08200
C1204       C  0.70539336  0.88729344  0.84578885    -0.05600
C1205       C  0.70571489  0.90859261  0.86743268    -0.06300
C1206       C  0.72939748  0.92458254  0.87307546    -0.15900
C1207       C  0.75382621  0.91904885  0.85722273    -0.01500
C1208       C  0.75368812  0.89737293  0.83609551    -0.09000
C1209       C  0.67912474  0.87093521  0.83985967     0.65300
H1210       H  0.68739708  0.91314103  0.88009349     0.10700
C1211       C  0.77980411  0.93607353  0.86246722     0.63600
H1212       H  0.77214909  0.89266681  0.82372869     0.08100
F1213       F  0.73170708  0.76422494  0.78338852    -0.19400
F1214       F  0.74008364  0.77790479  0.82999295    -0.15600
F1215       F  0.77504956  0.77540415  0.79827750    -0.19100
F1216       F  0.74745362  0.91521118  0.77448031    -0.22500
F1217       F  0.70179990  0.90942242  0.78016640    -0.24000
F1218       F  0.72084528  0.90154288  0.73614695    -0.18000
F1219       F  0.80160730  0.92619927  0.84582868    -0.20400
F1220       F  0.78764621  0.93489024  0.89202861    -0.21600
F1221       F  0.77495320  0.96366970  0.85464685    -0.18800
F1222       F  0.65791441  0.87955980  0.85807053    -0.18900
F1223       F  0.68389946  0.84275114  0.84484648    -0.22700
F1224       F  0.67044506  0.87465430  0.81081096    -0.24300
C1225       C  0.75188110  0.09799698  0.84091165    -0.11100
C1226       C  0.72684316  0.10959017  0.83052073     0.11500
C1227       C  0.70167201  0.10104068  0.84303948    -0.02900
C1228       C  0.70256416  0.08175931  0.86659893    -0.05700
C1229       C  0.72762247  0.07026222  0.87706388    -0.16400
C1230       C  0.75275631  0.07834605  0.86408899     0.02500
C1231       C  0.72790612  0.12993292  0.80572247     0.12400
C1232       C  0.67405159  0.11154159  0.83093842     0.63000
H1233       H  0.68361746  0.07472575  0.87648538     0.12500
C1234       C  0.78032350  0.06646267  0.87484919     0.55200
H1235       H  0.77080332  0.10456842  0.83061771     0.08200
C1236       C  0.73431483  0.15843962  0.81045182    -0.05600
C1237       C  0.73787419  0.17584643  0.78569692    -0.06300
C1238       C  0.73593395  0.16550772  0.75651213    -0.15900
C1239       C  0.72857662  0.13693901  0.75189542    -0.01500
C1240       C  0.72471418  0.11973636  0.77678588    -0.09000
C1241       C  0.73873935  0.17004798  0.84151646     0.65300
H1242       H  0.74343589  0.19756068  0.78902415     0.10700
C1243       C  0.72610365  0.12397319  0.72114532     0.63600
H1244       H  0.72005236  0.09773993  0.77395037     0.08100
F1245       F  0.78527552  0.07479354  0.90377822    -0.19400
F1246       F  0.80194840  0.07564610  0.85778149    -0.15600
F1247       F  0.78009823  0.03753198  0.87356657    -0.19100
F1248       F  0.67068528  0.10294187  0.80185294    -0.22500
F1249       F  0.67287956  0.14044657  0.83204247    -0.24000
F1250       F  0.65220842  0.10129473  0.84696844    -0.18000
F1251       F  0.75067251  0.12693933  0.70630119    -0.20400
F1252       F  0.70489994  0.13688525  0.70530511    -0.21600
F1253       F  0.72030356  0.09564579  0.72227507    -0.18800
F1254       F  0.74251672  0.19875244  0.84132961    -0.18900
F1255       F  0.76191780  0.15772913  0.85433842    -0.22700
F1256       F  0.71614208  0.16450279  0.85880000    -0.24300
C1257       C  0.91857596  0.24210928  0.84650237    -0.11100
C1258       C  0.90490365  0.26741471  0.83993415     0.11500
C1259       C  0.91184431  0.29218344  0.85550018    -0.02900
C1260       C  0.93247791  0.29066556  0.87754111    -0.05700
C1261       C  0.94593942  0.26535588  0.88427758    -0.16400
C1262       C  0.93945458  0.24069275  0.86837164     0.02500
C1263       C  0.88187287  0.26669448  0.81825582     0.12400
C1264       C  0.89698802  0.31982045  0.84959661     0.63000
H1265       H  0.93806840  0.30916446  0.89013838     0.12500
C1266       C  0.95464351  0.21327458  0.87435080     0.55200
H1267       H  0.91258690  0.22345623  0.83439251     0.08200
C1268       C  0.88606545  0.26833780  0.78734639    -0.05600
C1269       C  0.86287833  0.26707617  0.76827366    -0.06300
C1270       C  0.83637987  0.26288037  0.77939011    -0.15900
C1271       C  0.83236357  0.26048174  0.81020031    -0.01500
C1272       C  0.85533765  0.26271588  0.82927859    -0.09000
C1273       C  0.91486253  0.27042902  0.77468937     0.65300
H1274       H  0.86529510  0.26850846  0.74450312     0.10700
C1275       C  0.80389346  0.25562035  0.82268692     0.63600
H1276       H  0.85289736  0.26095746  0.85302469     0.08100
F1277       F  0.94442450  0.19169676  0.85693821    -0.19400
F1278       F  0.95198442  0.20569084  0.90369843    -0.15600
F1279       F  0.98233264  0.21631438  0.86824427    -0.19100
F1280       F  0.86973726  0.31777225  0.85785726    -0.22500
F1281       F  0.89790403  0.32646218  0.81985317    -0.24000
F1282       F  0.90886368  0.34164491  0.86537866    -0.18000
F1283       F  0.80437036  0.25512863  0.85336281    -0.20400
F1284       F  0.79390388  0.23020335  0.81267277    -0.21600
F1285       F  0.78608420  0.27682885  0.81356966    -0.18800
F1286       F  0.91413195  0.27266196  0.74410592    -0.18900
F1287       F  0.93000513  0.24670975  0.78207529    -0.22700
F1288       F  0.92823192  0.29365302  0.78599607    -0.24300
C1289       C  0.11383954  0.24869521  0.85457207    -0.11100
C1290       C  0.12711885  0.27327214  0.84582298     0.11500
C1291       C  0.12091511  0.29891016  0.86040595    -0.02900
C1292       C  0.10115633  0.29896367  0.88290100    -0.05700
C1293       C  0.08822717  0.27430688  0.89181672    -0.16400
C1294       C  0.09497358  0.24859662  0.87791127     0.02500
C1295       C  0.14535637  0.27152857  0.81969090     0.12400
C1296       C  0.13376499  0.32683683  0.85278439     0.63000
H1297       H  0.09551924  0.31855207  0.89350664     0.12500
C1298       C  0.08218920  0.22123629  0.88760087     0.55200
H1299       H  0.11797512  0.22955053  0.84246557     0.08200
C1300       C  0.17166653  0.25849702  0.82106854    -0.05600
C1301       C  0.18747879  0.25734815  0.79524941    -0.06300
C1302       C  0.17772443  0.26816671  0.76796189    -0.15900
C1303       C  0.15126515  0.28155315  0.76678691    -0.01500
C1304       C  0.13563469  0.28290025  0.79284338    -0.09000
C1305       C  0.18297187  0.24569120  0.84963323     0.65300
H1306       H  0.20759110  0.24729257  0.79614576     0.10700
C1307       C  0.13891128  0.29376580  0.73837113     0.63600
H1308       H  0.11539199  0.29272636  0.79255984     0.08100
F1309       F  0.09343117  0.19845915  0.87289758    -0.19400
F1310       F  0.05408611  0.22171680  0.88183790    -0.15600
F1311       F  0.08679848  0.21740345  0.91764146    -0.19100
F1312       F  0.11397530  0.34371641  0.83921016    -0.22500
F1313       F  0.15610375  0.32438540  0.83427165    -0.24000
F1314       F  0.14285734  0.33983500  0.87852636    -0.18000
F1315       F  0.13736827  0.27324341  0.71673884    -0.20400
F1316       F  0.15501771  0.31561238  0.72871236    -0.21600
F1317       F  0.11247127  0.30423379  0.74238597    -0.18800
F1318       F  0.21003584  0.23666293  0.84686354    -0.18900
F1319       F  0.16740029  0.22279565  0.85733156    -0.22700
F1320       F  0.18215938  0.26528975  0.87220440    -0.24300
C1321       C  0.22208254  0.09702445  0.83521409    -0.11100
C1322       C  0.25070424  0.10001178  0.83248276     0.11500
C1323       C  0.26920016  0.08390023  0.85010901    -0.02900
C1324       C  0.25813689  0.06475149  0.87006937    -0.05700
C1325       C  0.22950927  0.06255605  0.87351101    -0.16400
C1326       C  0.21106087  0.07840931  0.85569429     0.02500
C1327       C  0.26023175  0.12276090  0.81354110     0.12400
C1328       C  0.30023089  0.08813535  0.84909332     0.63000
H1329       H  0.27166824  0.05251283  0.88446276     0.12500
C1330       C  0.18003790  0.07585013  0.85880226     0.55200
H1331       H  0.20848327  0.11013358  0.82178604     0.08200
C1332       C  0.26056435  0.12031706  0.78231609    -0.05600
C1333       C  0.26565855  0.14444683  0.76571316    -0.06300
C1334       C  0.27063783  0.17017451  0.77965495    -0.15900
C1335       C  0.27134889  0.17235691  0.81082828    -0.01500
C1336       C  0.26575822  0.14842753  0.82739433    -0.09000
C1337       C  0.25524823  0.09257980  0.76673668     0.65300
H1338       H  0.26503712  0.14366725  0.74171315     0.10700
C1339       C  0.27718576  0.20000892  0.82631401     0.63600
H1340       H  0.26486820  0.14967308  0.85133645     0.08100
F1341       F  0.16577049  0.09316230  0.83920071    -0.19400
F1342       F  0.17247737  0.08307854  0.88724663    -0.15600
F1343       F  0.17226122  0.04853580  0.85315666    -0.19100
F1344       F  0.30671827  0.11432580  0.86014908    -0.22500
F1345       F  0.30926514  0.08612663  0.82027859    -0.24000
F1346       F  0.31445190  0.06833206  0.86586840    -0.18000
F1347       F  0.25901734  0.22048589  0.81617588    -0.20400
F1348       F  0.30389895  0.20809534  0.82050823    -0.21600
F1349       F  0.27445812  0.19799944  0.85672517    -0.18800
F1350       F  0.25627810  0.09517814  0.73622383    -0.18900
F1351       F  0.22945375  0.08265133  0.77373311    -0.22700
F1352       F  0.27501745  0.07312589  0.77547967    -0.24300
C1353       C  0.28531007  0.90436010  0.87869025    -0.11100
C1354       C  0.26859646  0.88166842  0.87113024     0.11500
C1355       C  0.24116015  0.88019544  0.88127443    -0.02900
C1356       C  0.23081703  0.90272792  0.89764024    -0.05700
C1357       C  0.24697627  0.92629000  0.90350342    -0.16400
C1358       C  0.27485591  0.92716014  0.89451689     0.02500
C1359       C  0.27888479  0.86169145  0.84920886     0.12400
C1360       C  0.22271334  0.85542557  0.87404399     0.63000
H1361       H  0.20975624  0.90255052  0.90537985     0.12500
C1362       C  0.29436475  0.95138303  0.90027892     0.55200
H1363       H  0.30637569  0.90482911  0.87090306     0.08200
C1364       C  0.27635157  0.86774674  0.81864370    -0.05600
C1365       C  0.28046772  0.84592659  0.79860090    -0.06300
C1366       C  0.28852238  0.81926586  0.80832474    -0.15900
C1367       C  0.29470741  0.81419781  0.83850355    -0.01500
C1368       C  0.28914379  0.83566681  0.85888428    -0.09000
C1369       C  0.26920307  0.89696016  0.80732403     0.65300
H1370       H  0.27713232  0.84936841  0.77507157     0.10700
C1371       C  0.30658023  0.78634624  0.84888241     0.63600
H1372       H  0.29188813  0.83211484  0.88245151     0.08100
F1373       F  0.30252312  0.96224412  0.87343052    -0.19400
F1374       F  0.31747787  0.94159213  0.91552835    -0.15600
F1375       F  0.28294373  0.97287754  0.91666679    -0.19100
F1376       F  0.23455006  0.83109130  0.88514193    -0.22500
F1377       F  0.21927043  0.85289563  0.84368533    -0.24000
F1378       F  0.19683033  0.85841143  0.88632940    -0.18000
F1379       F  0.33177692  0.78167527  0.83568022    -0.20400
F1380       F  0.28888334  0.76492126  0.84117679    -0.21600
F1381       F  0.31067737  0.78577905  0.87930311    -0.18800
F1382       F  0.26695827  0.89769512  0.77671123    -0.18900
F1383       F  0.28979834  0.91531720  0.81581222    -0.22700
F1384       F  0.24436562  0.90604374  0.81875079    -0.24300
C1385       C  0.38699338  0.81318349  0.34672011    -0.11100
C1386       C  0.38592232  0.78682024  0.33301072     0.11500
C1387       C  0.40456767  0.76536632  0.34202182    -0.02900
C1388       C  0.42342135  0.77093743  0.36523446    -0.05700
C1389       C  0.42491790  0.79747463  0.37860956    -0.16400
C1390       C  0.40651273  0.81905938  0.36928899     0.02500
C1391       C  0.36649950  0.78286125  0.30766055     0.12400
C1392       C  0.40540850  0.73721152  0.32622499     0.63000
H1393       H  0.43810452  0.75496737  0.37232034     0.12500
C1394       C  0.40827323  0.84839625  0.38219648     0.55200
H1395       H  0.37281551  0.82934748  0.33898454     0.08200
C1396       C  0.33887648  0.77447186  0.31149797    -0.05600
C1397       C  0.32244998  0.76911676  0.28615281    -0.06300
C1398       C  0.33264840  0.77252671  0.25739590    -0.15900
C1399       C  0.36007349  0.78211157  0.25369916    -0.01500
C1400       C  0.37647459  0.78720508  0.27910198    -0.09000
C1401       C  0.32685109  0.77153308  0.34220181     0.65300
H1402       H  0.30134318  0.76229926  0.28859155     0.10700
C1403       C  0.37251225  0.78592861  0.22329063     0.63600
H1404       H  0.39757458  0.79416359  0.27696150     0.08100
F1405       F  0.40173321  0.84797399  0.41186702    -0.19400
F1406       F  0.39020950  0.86678174  0.36801532    -0.15600
F1407       F  0.43474074  0.85853337  0.37919120    -0.19100
F1408       F  0.41345215  0.74094688  0.29725470    -0.22500
F1409       F  0.37964419  0.72500662  0.32621846    -0.24000
F1410       F  0.42391261  0.71879897  0.33969618    -0.18000
F1411       F  0.35897213  0.80737847  0.20834924    -0.20400
F1412       F  0.37018467  0.76140066  0.20717676    -0.21600
F1413       F  0.40024713  0.79264618  0.22512743    -0.18800
F1414       F  0.29974578  0.76261953  0.34101560    -0.18900
F1415       F  0.32743162  0.79715538  0.35650019    -0.22700
F1416       F  0.34205649  0.75232878  0.35868696    -0.24300
C1417       C  0.28784377  0.64319358  0.31886716    -0.11100
C1418       C  0.27663034  0.61704181  0.31180533     0.11500
C1419       C  0.25818768  0.61415558  0.28736459    -0.02900
C1420       C  0.25140108  0.63811486  0.27066789    -0.05700
C1421       C  0.26258063  0.66423895  0.27793005    -0.16400
C1422       C  0.28135348  0.66697669  0.30201446     0.02500
C1423       C  0.28203772  0.59417025  0.33296829     0.12400
C1424       C  0.24564487  0.58606608  0.27920635     0.63000
H1425       H  0.23720143  0.63673420  0.25194018     0.12500
C1426       C  0.29379697  0.69506531  0.31024613     0.55200
H1427       H  0.30133068  0.64487054  0.33816390     0.08200
C1428       C  0.30774601  0.57989585  0.33473493    -0.05600
C1429       C  0.31255634  0.56145346  0.35852429    -0.06300
C1430       C  0.29240542  0.55719820  0.37995457    -0.15900
C1431       C  0.26621794  0.57042800  0.37727623    -0.01500
C1432       C  0.26171020  0.58922248  0.35395654    -0.09000
C1433       C  0.33003575  0.58458577  0.31201290     0.65300
H1434       H  0.33229606  0.55083637  0.36113464     0.10700
C1435       C  0.24315234  0.56467520  0.39888887     0.63600
H1436       H  0.24241771  0.60080738  0.35223716     0.08100
F1437       F  0.30954528  0.70466881  0.28717684    -0.19400
F1438       F  0.31067462  0.69330088  0.33523455    -0.15600
F1439       F  0.27290070  0.71418362  0.31586805    -0.19100
F1440       F  0.22863379  0.57714301  0.30152265    -0.22500
F1441       F  0.26631530  0.56636059  0.27515933    -0.24000
F1442       F  0.23006443  0.58761704  0.25326789    -0.18000
F1443       F  0.25095470  0.57256966  0.42725197    -0.20400
F1444       F  0.23715578  0.53641677  0.39866734    -0.21600
F1445       F  0.21919181  0.57924078  0.39146858    -0.18800
F1446       F  0.35234850  0.56666969  0.31640460    -0.18900
F1447       F  0.33946742  0.61177124  0.31388461    -0.22700
F1448       F  0.31953140  0.57994196  0.28379857    -0.24300
C1449       C  0.34350354  0.64157782  0.15082888    -0.11100
C1450       C  0.36978326  0.64308391  0.16396786     0.11500
C1451       C  0.37901751  0.66832486  0.17702229    -0.02900
C1452       C  0.36024938  0.69073667  0.17904047    -0.05700
C1453       C  0.33312126  0.68846985  0.16806631    -0.16400
C1454       C  0.32481034  0.66405174  0.15254457     0.02500
C1455       C  0.38672303  0.61740536  0.16457537     0.12400
C1456       C  0.40840570  0.67146691  0.18875281     0.63000
H1457       H  0.36627014  0.70980120  0.19030360     0.12500
C1458       C  0.29667937  0.66186323  0.13738238     0.55200
H1459       H  0.33745533  0.62219560  0.14012491     0.08200
C1460       C  0.38382067  0.59713953  0.18712978    -0.05600
C1461       C  0.40153712  0.57381013  0.18712697    -0.06300
C1462       C  0.42075339  0.56968153  0.16460398    -0.15900
C1463       C  0.42169856  0.58868771  0.14052630    -0.01500
C1464       C  0.40516168  0.61285447  0.14149559    -0.09000
C1465       C  0.36218665  0.60014204  0.21100530     0.65300
H1466       H  0.40098457  0.55880939  0.20508679     0.10700
C1467       C  0.43981767  0.58468382  0.11369796     0.63600
H1468       H  0.40635687  0.62819650  0.12387607     0.08100
F1469       F  0.29473572  0.63800301  0.12000233    -0.19400
F1470       F  0.29230496  0.68484096  0.11922921    -0.15600
F1471       F  0.27609528  0.66079525  0.15818506    -0.19100
F1472       F  0.42657595  0.66893944  0.16556378    -0.22500
F1473       F  0.41445034  0.65100005  0.20954339    -0.24000
F1474       F  0.41249232  0.69730994  0.20203701    -0.18000
F1475       F  0.42413938  0.58884151  0.08815167    -0.20400
F1476       F  0.45131451  0.55813399  0.11212807    -0.21600
F1477       F  0.46079930  0.60413980  0.11452666    -0.18800
F1478       F  0.36355771  0.57828555  0.23112452    -0.18900
F1479       F  0.33611482  0.60020921  0.19809388    -0.22700
F1480       F  0.36589844  0.62487874  0.22645614    -0.24300
C1481       C  0.24178202  0.93383372  0.08965088    -0.11100
C1482       C  0.22727777  0.90870810  0.09094156     0.11500
C1483       C  0.20362086  0.90433958  0.07284283    -0.02900
C1484       C  0.19648360  0.92484913  0.05192023    -0.05700
C1485       C  0.21211541  0.94920632  0.04919322    -0.16400
C1486       C  0.23463102  0.95442540  0.06881525     0.02500
C1487       C  0.23775709  0.88691766  0.11104760     0.12400
C1488       C  0.18637251  0.87801671  0.07536804     0.63000
H1489       H  0.17950128  0.92146549  0.03644915     0.12500
C1490       C  0.25118421  0.98130626  0.06770775     0.55200
H1491       H  0.25920005  0.93678903  0.10465723     0.08200
C1492       C  0.25840704  0.86767904  0.10225060    -0.05600
C1493       C  0.26547938  0.84578232  0.12157654    -0.06300
C1494       C  0.25197672  0.84241699  0.14859577    -0.15900
C1495       C  0.23233340  0.86268612  0.15793765    -0.01500
C1496       C  0.22584335  0.88497701  0.13891865    -0.09000
C1497       C  0.27214044  0.86974267  0.07225683     0.65300
H1498       H  0.28062771  0.83023611  0.11501684     0.10700
C1499       C  0.21746887  0.86055523  0.18715510     0.63600
H1500       H  0.21032962  0.90035891  0.14497605     0.08100
F1501       F  0.27491786  0.97959305  0.08514726    -0.19400
F1502       F  0.23522677  0.00321486  0.07813679    -0.15600
F1503       F  0.25912647  0.98709058  0.03909117    -0.19100
F1504       F  0.17469571  0.87701809  0.10308907    -0.22500
F1505       F  0.20262729  0.85439557  0.07144872    -0.24000
F1506       F  0.16524563  0.87739301  0.05436060    -0.18000
F1507       F  0.20430042  0.88544683  0.19438716    -0.20400
F1508       F  0.23602300  0.85427536  0.20983671    -0.21600
F1509       F  0.19775759  0.83987356  0.18501532    -0.18800
F1510       F  0.29149923  0.84861867  0.06822361    -0.18900
F1511       F  0.28544367  0.89511186  0.06992571    -0.22700
F1512       F  0.25255105  0.86770054  0.04976670    -0.24300
C1513       C  0.10945351  0.72193749  0.08483304    -0.11100
C1514       C  0.12845144  0.70055717  0.09185741     0.11500
C1515       C  0.12672781  0.67441437  0.07703841    -0.02900
C1516       C  0.10611289  0.67084798  0.05501377    -0.05700
C1517       C  0.08748005  0.69249127  0.04763674    -0.16400
C1518       C  0.08924578  0.71859264  0.06247773     0.02500
C1519       C  0.14930337  0.70632830  0.11553983     0.12400
C1520       C  0.14652050  0.65048755  0.08439934     0.63000
H1521       H  0.10440986  0.65116541  0.04318195     0.12500
C1522       C  0.07032235  0.74299566  0.05425979     0.55200
H1523       H  0.11087123  0.74152065  0.09690023     0.08200
C1524       C  0.17209989  0.72404141  0.11091238    -0.05600
C1525       C  0.18886417  0.73148736  0.13540153    -0.06300
C1526       C  0.18403754  0.72121837  0.16407235    -0.15900
C1527       C  0.16209067  0.70192728  0.16814477    -0.01500
C1528       C  0.14474649  0.69549541  0.14379514    -0.09000
C1529       C  0.17867521  0.73499728  0.08023558     0.65300
H1530       H  0.20586015  0.74571666  0.13230593     0.10700
C1531       C  0.15631677  0.68838329  0.19786429     0.63600
H1532       H  0.12701498  0.68217195  0.14664816     0.08100
F1533       F  0.07276220  0.74916115  0.02449897    -0.19400
F1534       F  0.07668976  0.76690841  0.07027403    -0.15600
F1535       F  0.04327869  0.73621810  0.05994251    -0.19100
F1536       F  0.14189722  0.64101932  0.11279122    -0.22500
F1537       F  0.17350596  0.65942610  0.08257571    -0.24000
F1538       F  0.14318379  0.62814252  0.06510785    -0.18000
F1539       F  0.13321781  0.67151100  0.19663976    -0.20400
F1540       F  0.15176586  0.70875877  0.21906987    -0.21600
F1541       F  0.17852394  0.67168063  0.20639262    -0.18800
F1542       F  0.20330000  0.74950070  0.08015212    -0.18900
F1543       F  0.15796441  0.75292454  0.07037837    -0.22700
F1544       F  0.18096728  0.71287164  0.06059209    -0.24300
C1545       C  0.76386390  0.59376630  0.34267519    -0.11100
C1546       C  0.78649505  0.59823469  0.32431986     0.11500
C1547       C  0.81170384  0.58379425  0.33014030    -0.02900
C1548       C  0.81307638  0.56459756  0.35392368    -0.05700
C1549       C  0.79015376  0.55975285  0.37185636    -0.16400
C1550       C  0.76512199  0.57447335  0.36618668     0.02500
C1551       C  0.78253019  0.61770518  0.29876070     0.12400
C1552       C  0.83697661  0.58885841  0.31145737     0.63000
H1553       H  0.83201879  0.55316014  0.35874368     0.12500
C1554       C  0.73967983  0.56931207  0.38459744     0.55200
H1555       H  0.74490855  0.60523768  0.33797542     0.08200
C1556       C  0.76896336  0.60908050  0.27229739    -0.05600
C1557       C  0.76354522  0.62906708  0.25003105    -0.06300
C1558       C  0.77085254  0.65733938  0.25339276    -0.15900
C1559       C  0.78532109  0.66578635  0.27945726    -0.01500
C1560       C  0.79069003  0.64574071  0.30189542    -0.09000
C1561       C  0.75972450  0.57898287  0.26778123     0.65300
H1562       H  0.75263379  0.62288243  0.22995686     0.10700
C1563       C  0.79575138  0.69545434  0.28323655     0.63600
H1564       H  0.80093383  0.65188817  0.32236747     0.08100
F1565       F  0.73277392  0.54128696  0.38327923    -0.19400
F1566       F  0.71713827  0.58478202  0.37453120    -0.15600
F1567       F  0.74485419  0.57669830  0.41377073    -0.19100
F1568       F  0.84528394  0.61632382  0.31475438    -0.22500
F1569       F  0.83094204  0.58387947  0.28189125    -0.24000
F1570       F  0.85885302  0.57156604  0.31972673    -0.18000
F1571       F  0.81230968  0.69816963  0.30837324    -0.20400
F1572       F  0.77370894  0.71382687  0.28572464    -0.21600
F1573       F  0.81125531  0.70275196  0.25899978    -0.18800
F1574       F  0.74852680  0.57474757  0.23972697    -0.18900
F1575       F  0.73986607  0.57235411  0.28819650    -0.22700
F1576       F  0.78192767  0.56085785  0.27129667    -0.24300
C1577       C  0.58411137  0.75137119  0.33028339    -0.11100
C1578       C  0.60566344  0.77051500  0.32763100     0.11500
C1579       C  0.60691557  0.79438189  0.34618248    -0.02900
C1580       C  0.58672562  0.79775555  0.36781634    -0.05700
C1581       C  0.56573066  0.77806067  0.37129508    -0.16400
C1582       C  0.56428600  0.75433041  0.35241101     0.02500
C1583       C  0.62764999  0.76447478  0.30631614     0.12400
C1584       C  0.62951475  0.81607034  0.34310828     0.63000
H1585       H  0.58715710  0.81581941  0.38238084     0.12500
C1586       C  0.54291876  0.73137124  0.35481139     0.55200
H1587       H  0.58342964  0.73335115  0.31562709     0.08200
C1588       C  0.65076906  0.74771733  0.31428301    -0.05600
C1589       C  0.67277125  0.74587168  0.29451840    -0.06300
C1590       C  0.67227223  0.76044726  0.26750718    -0.15900
C1591       C  0.64838266  0.77610154  0.25898472    -0.01500
C1592       C  0.62622564  0.77754883  0.27862155    -0.09000
C1593       C  0.65218576  0.73216171  0.34365634     0.65300
H1594       H  0.69093897  0.73357432  0.30039024     0.10700
C1595       C  0.64622670  0.79152779  0.22964811     0.63600
H1596       H  0.60804695  0.78999453  0.27314489     0.08100
F1597       F  0.55620055  0.70561950  0.35621236    -0.19400
F1598       F  0.52592308  0.73194953  0.32990446    -0.15600
F1599       F  0.52666420  0.73377578  0.37957810    -0.19100
F1600       F  0.62788792  0.82807838  0.31528313    -0.22500
F1601       F  0.65520802  0.80363233  0.34686903    -0.24000
F1602       F  0.62719566  0.83726459  0.36391185    -0.18000
F1603       F  0.65352377  0.77386672  0.20667333    -0.20400
F1604       F  0.66354032  0.81438956  0.23038001    -0.21600
F1605       F  0.61964621  0.80119644  0.22389609    -0.18800
F1606       F  0.67693644  0.71779940  0.34741605    -0.18900
F1607       F  0.63101823  0.71298066  0.34474577    -0.22700
F1608       F  0.64960992  0.75073854  0.36700754    -0.24300
C1609       C  0.62548788  0.65204283  0.17730388    -0.11100
C1610       C  0.62983365  0.62298348  0.17763256     0.11500
C1611       C  0.65695611  0.61193637  0.17983658    -0.02900
C1612       C  0.67909583  0.63062075  0.18193972    -0.05700
C1613       C  0.67490392  0.65977402  0.18251827    -0.16400
C1614       C  0.64762374  0.67083032  0.18025097     0.02500
C1615       C  0.60558542  0.60436814  0.17764895     0.12400
C1616       C  0.66238976  0.58051627  0.18034958     0.63000
H1617       H  0.70001776  0.62252413  0.18372722     0.12500
C1618       C  0.64173899  0.70211979  0.18107434     0.55200
H1619       H  0.60444574  0.65982511  0.17568844     0.08200
C1620       C  0.59255020  0.59721111  0.20436835    -0.05600
C1621       C  0.57207305  0.57663801  0.20356958    -0.06300
C1622       C  0.56327324  0.56446090  0.17680836    -0.15900
C1623       C  0.57486588  0.57317702  0.14970296    -0.01500
C1624       C  0.59641756  0.59267757  0.15074825    -0.09000
C1625       C  0.59977349  0.61177978  0.23339331     0.65300
H1626       H  0.56219407  0.57027419  0.22381705     0.10700
C1627       C  0.56552681  0.56280085  0.11932029     0.63600
H1628       H  0.60625427  0.59884244  0.13037806     0.08100
F1629       F  0.64756841  0.71236115  0.20914276    -0.19400
F1630       F  0.61432297  0.70820552  0.17446265    -0.15600
F1631       F  0.65776804  0.71576031  0.16061054    -0.19100
F1632       F  0.65298838  0.56862850  0.15416908    -0.22500
F1633       F  0.64886892  0.56843160  0.20378290    -0.24000
F1634       F  0.69024484  0.57427765  0.18351878    -0.18000
F1635       F  0.55834907  0.58553855  0.10176776    -0.20400
F1636       F  0.54302536  0.54524534  0.12009818    -0.21600
F1637       F  0.58706667  0.54846872  0.10621734    -0.18800
F1638       F  0.58564337  0.60056524  0.25693846    -0.18900
F1639       F  0.59279501  0.63985413  0.23126361    -0.22700
F1640       F  0.62771564  0.60930088  0.23961900    -0.24300
C1641       C  0.85017571  0.70788424  0.07750576    -0.11100
C1642       C  0.87573446  0.70267958  0.09153841     0.11500
C1643       C  0.87782575  0.70203628  0.12285723    -0.02900
C1644       C  0.85374551  0.70596775  0.13921563    -0.05700
C1645       C  0.82823210  0.71082723  0.12515233    -0.16400
C1646       C  0.82607937  0.71166069  0.09391585     0.02500
C1647       C  0.89996327  0.69823692  0.07265175     0.12400
C1648       C  0.90526454  0.69744254  0.13892583     0.63000
H1649       H  0.85461890  0.70553735  0.16321902     0.12500
C1650       C  0.79851662  0.71624574  0.07811003     0.55200
H1651       H  0.84930096  0.70885934  0.05352532     0.08200
C1652       C  0.90490062  0.67238158  0.05818943    -0.05600
C1653       C  0.92803293  0.66995124  0.03996942    -0.06300
C1654       C  0.94593390  0.69248434  0.03600073    -0.15900
C1655       C  0.94094928  0.71833853  0.05046924    -0.01500
C1656       C  0.91771157  0.72081979  0.06846875    -0.09000
C1657       C  0.88570601  0.64765687  0.06184042     0.65300
H1658       H  0.93215302  0.65059030  0.02822732     0.10700
C1659       C  0.96016812  0.74304770  0.04711789     0.63600
H1660       H  0.91317278  0.74042784  0.07956049     0.08100
F1661       F  0.80044940  0.71193892  0.04785011    -0.19400
F1662       F  0.78949514  0.74339969  0.08286708    -0.15600
F1663       F  0.77915256  0.69783856  0.08877421    -0.19100
F1664       F  0.92244563  0.71979928  0.13373829    -0.22500
F1665       F  0.91771354  0.67308582  0.12902112    -0.24000
F1666       F  0.90202738  0.69515652  0.16926279    -0.18000
F1667       F  0.94995683  0.76690049  0.06074937    -0.20400
F1668       F  0.96372284  0.74913008  0.01749546    -0.21600
F1669       F  0.98548817  0.73663064  0.05998562    -0.18800
F1670       F  0.89524915  0.62407344  0.04719402    -0.18900
F1671       F  0.85980742  0.65420588  0.05041810    -0.22700
F1672       F  0.88347559  0.64111361  0.09153083    -0.24300
C1673       C  0.71175798  0.85649694  0.11602750    -0.11100
C1674       C  0.72714362  0.85309561  0.09029613     0.11500
C1675       C  0.74406279  0.82904888  0.08702226    -0.02900
C1676       C  0.74640805  0.81000831  0.11078968    -0.05700
C1677       C  0.73219187  0.81405728  0.13759217    -0.16400
C1678       C  0.71325412  0.83707037  0.13945077     0.02500
C1679       C  0.72600452  0.87582369  0.06778600     0.12400
C1680       C  0.75987059  0.82380603  0.05866386     0.63000
H1681       H  0.76041622  0.79234311  0.10886703     0.12500
C1682       C  0.69435304  0.84147936  0.16560144     0.55200
H1683       H  0.69890037  0.87507464  0.11790057     0.08200
C1684       C  0.70309864  0.87960968  0.04824603    -0.05600
C1685       C  0.70327703  0.90217002  0.02820954    -0.06300
C1686       C  0.72568531  0.92052608  0.02695413    -0.15900
C1687       C  0.74895810  0.91622489  0.04581998    -0.01500
C1688       C  0.74837099  0.89426793  0.06653673    -0.09000
C1689       C  0.67860863  0.85997275  0.04857191     0.65300
H1690       H  0.68589344  0.90572171  0.01325147     0.10700
C1691       C  0.77453287  0.93423951  0.04344855     0.63600
H1692       H  0.76555200  0.89111216  0.08185968     0.08100
F1693       F  0.68137303  0.81663186  0.17217669    -0.19400
F1694       F  0.67393310  0.86122614  0.15951598    -0.15600
F1695       F  0.70939625  0.85075281  0.18994704    -0.19100
F1696       F  0.77981333  0.84401653  0.05529258    -0.22500
F1697       F  0.74197365  0.82468148  0.03450083    -0.24000
F1698       F  0.77287510  0.79788695  0.05879578    -0.18000
F1699       F  0.76847854  0.96151400  0.05149850    -0.20400
F1700       F  0.78379373  0.93389717  0.01461336    -0.21600
F1701       F  0.79582591  0.92461664  0.06165996    -0.18800
F1702       F  0.66047852  0.86512406  0.02514808    -0.18900
F1703       F  0.66437862  0.86340889  0.07463719    -0.22700
F1704       F  0.68752664  0.83246889  0.04643153    -0.24300
C1705       C  0.57017034  0.23506857  0.33121969    -0.11100
C1706       C  0.59186834  0.21547064  0.33213021     0.11500
C1707       C  0.59294776  0.19483002  0.35459024    -0.02900
C1708       C  0.57165862  0.19419505  0.37532717    -0.05700
C1709       C  0.55037062  0.21429825  0.37504957    -0.16400
C1710       C  0.54946047  0.23520128  0.35273208     0.02500
C1711       C  0.61485785  0.21898003  0.31134593     0.12400
C1712       C  0.61733310  0.17472017  0.35773518     0.63000
H1713       H  0.57210437  0.17876357  0.39290032     0.12500
C1714       C  0.52778829  0.25843298  0.35257723     0.55200
H1715       H  0.57028534  0.25097146  0.31413749     0.08200
C1716       C  0.61503510  0.20620120  0.28305667    -0.05600
C1717       C  0.63878212  0.20879586  0.26580636    -0.06300
C1718       C  0.66163854  0.22430875  0.27575817    -0.15900
C1719       C  0.66090595  0.23805652  0.30358705    -0.01500
C1720       C  0.63730711  0.23513817  0.32093035    -0.09000
C1721       C  0.59021266  0.19026442  0.27110418     0.65300
H1722       H  0.63966791  0.19884204  0.24424804     0.10700
C1723       C  0.68524791  0.25479972  0.31546100     0.63600
H1724       H  0.63630265  0.24507176  0.34249544     0.08100
F1725       F  0.50170614  0.24744608  0.34877465    -0.19400
F1726       F  0.53181977  0.27736671  0.32987921    -0.15600
F1727       F  0.52903047  0.27288964  0.37913076    -0.19100
F1728       F  0.64078637  0.18953265  0.36539008    -0.22500
F1729       F  0.62181297  0.16074617  0.33138896    -0.24000
F1730       F  0.61306429  0.15484652  0.37944050    -0.18000
F1731       F  0.68843249  0.27868341  0.29861326    -0.20400
F1732       F  0.70913790  0.23874607  0.31440956    -0.21600
F1733       F  0.68156919  0.26299578  0.34458308    -0.18800
F1734       F  0.59518710  0.17869038  0.24351643    -0.18900
F1735       F  0.56783098  0.20829035  0.26839569    -0.22700
F1736       F  0.58356057  0.16876511  0.29007922    -0.24300
C1737       C  0.75001054  0.38429007  0.35007597    -0.11100
C1738       C  0.77356052  0.37357999  0.33608866     0.11500
C1739       C  0.80007099  0.38263035  0.34565984    -0.02900
C1740       C  0.80201804  0.40272846  0.36851330    -0.05700
C1741       C  0.77842820  0.41383975  0.38199741    -0.16400
C1742       C  0.75201183  0.40405008  0.37324764     0.02500
C1743       C  0.76971406  0.35424189  0.31030889     0.12400
C1744       C  0.82617453  0.37168741  0.33128854     0.63000
H1745       H  0.82198922  0.41061983  0.37548818     0.12500
C1746       C  0.72612220  0.41475982  0.38820019     0.55200
H1747       H  0.72993650  0.37740709  0.34225254     0.08200
C1748       C  0.76238968  0.32579984  0.31361261    -0.05600
C1749       C  0.75867707  0.30920167  0.28803746    -0.06300
C1750       C  0.76168981  0.31999584  0.25921179    -0.15900
C1751       C  0.76952183  0.34860336  0.25607282    -0.01500
C1752       C  0.77307655  0.36511650  0.28179687    -0.09000
C1753       C  0.75805836  0.31306195  0.34397846     0.65300
H1754       H  0.75270891  0.28754258  0.29048706     0.10700
C1755       C  0.77361469  0.36226060  0.22604632     0.63600
H1756       H  0.77829336  0.38704299  0.27994057     0.08100
F1757       F  0.70252307  0.40255522  0.37649886    -0.19400
F1758       F  0.72371681  0.44343123  0.38460651    -0.15600
F1759       F  0.72753668  0.40864615  0.41812622    -0.19100
F1760       F  0.82783829  0.38203443  0.30280142    -0.22500
F1761       F  0.82597260  0.34274001  0.33025965    -0.24000
F1762       F  0.84964304  0.37976484  0.34687329    -0.18000
F1763       F  0.78026019  0.39032924  0.22862256    -0.20400
F1764       F  0.74960836  0.36055249  0.20915558    -0.21600
F1765       F  0.79504161  0.34904285  0.21152619    -0.18800
F1766       F  0.75382671  0.28444431  0.34234583    -0.18900
F1767       F  0.73515756  0.32513746  0.35687118    -0.22700
F1768       F  0.78098403  0.31758663  0.36192749    -0.24300
C1769       C  0.59324869  0.39163695  0.21983915    -0.11100
C1770       C  0.60057004  0.38051218  0.19224568     0.11500
C1771       C  0.58508857  0.38792422  0.16654937    -0.02900
C1772       C  0.56328436  0.40731143  0.16928091    -0.05700
C1773       C  0.55708961  0.41983703  0.19657313    -0.16400
C1774       C  0.57212258  0.41181160  0.22245483     0.02500
C1775       C  0.62436592  0.36082002  0.19096670     0.12400
C1776       C  0.59202590  0.37593537  0.13632515     0.63000
H1777       H  0.55150369  0.41380978  0.14983870     0.12500
C1778       C  0.56726747  0.42389803  0.25310187     0.55200
H1779       H  0.60485368  0.38517760  0.23944896     0.08200
C1780       C  0.65192347  0.37024772  0.18974585    -0.05600
C1781       C  0.67330786  0.35026125  0.18759575    -0.06300
C1782       C  0.66811273  0.32132624  0.18821163    -0.15900
C1783       C  0.64034185  0.31197843  0.19036483    -0.01500
C1784       C  0.61897784  0.33208746  0.19146597    -0.09000
C1785       C  0.65874768  0.40121470  0.19174789     0.65300
H1786       H  0.69450565  0.35716954  0.18671266     0.10700
C1787       C  0.63287708  0.28111804  0.19158725     0.63600
H1788       H  0.59769384  0.32558153  0.19317831     0.08100
F1789       F  0.59181638  0.43439391  0.26438320    -0.19400
F1790       F  0.55841341  0.40281314  0.27154998    -0.15600
F1791       F  0.54786248  0.44526767  0.25340111    -0.19100
F1792       F  0.58996871  0.34708988  0.13676077    -0.22500
F1793       F  0.61863865  0.38309728  0.12898046    -0.24000
F1794       F  0.57433320  0.38597514  0.11433278    -0.18000
F1795       F  0.64093832  0.27002176  0.21869162    -0.20400
F1796       F  0.64573405  0.26661404  0.16902706    -0.21600
F1797       F  0.60470867  0.27711227  0.18832709    -0.18800
F1798       F  0.68683003  0.40584830  0.18967354    -0.18900
F1799       F  0.65020204  0.41178783  0.21865622    -0.22700
F1800       F  0.64552179  0.41578230  0.16913947    -0.24300
C1801       C  0.73971582  0.09413928  0.07069113    -0.11100
C1802       C  0.71359657  0.10342904  0.07962637     0.11500
C1803       C  0.68962169  0.09415026  0.06433644    -0.02900
C1804       C  0.69276824  0.07569591  0.04024761    -0.05700
C1805       C  0.71888743  0.06576704  0.03193780    -0.16400
C1806       C  0.74277492  0.07458419  0.04769487     0.02500
C1807       C  0.71250345  0.12288105  0.10521670     0.12400
C1808       C  0.66096065  0.10338320  0.07364678     0.63000
H1809       H  0.67482273  0.06834395  0.02800950     0.12500
C1810       C  0.77118388  0.06269876  0.04092909     0.55200
H1811       H  0.75773100  0.10184344  0.08255848     0.08200
C1812       C  0.71793959  0.11359217  0.13452775    -0.05600
C1813       C  0.72100313  0.13371112  0.15703202    -0.06300
C1814       C  0.71930979  0.16255662  0.15103230    -0.15900
C1815       C  0.71173055  0.17169218  0.12214888    -0.01500
C1816       C  0.70873829  0.15154570  0.09955382    -0.09000
C1817       C  0.72159436  0.08268261  0.14188444     0.65300
H1818       H  0.72656996  0.12702754  0.17927906     0.10700
C1819       C  0.70667771  0.20238685  0.11513973     0.63600
H1820       H  0.70462779  0.15812980  0.07694396     0.08100
F1821       F  0.77109863  0.03391799  0.04427581    -0.19400
F1822       F  0.79134960  0.07337889  0.05977249    -0.15600
F1823       F  0.77824561  0.06911931  0.01221554    -0.19100
F1824       F  0.65759152  0.13178691  0.06883008    -0.22500
F1825       F  0.65738871  0.09783855  0.10339216    -0.24000
F1826       F  0.64051058  0.08950896  0.05782160    -0.18000
F1827       F  0.69427321  0.20589934  0.08752498    -0.20400
F1828       F  0.73141436  0.21651613  0.11526863    -0.21600
F1829       F  0.68942125  0.21411936  0.13601405    -0.18800
F1830       F  0.72356489  0.07821745  0.17215868    -0.18900
F1831       F  0.74544940  0.07238446  0.12930924    -0.22700
F1832       F  0.69929104  0.06770100  0.13111377    -0.24300
C1833       C  0.84635789  0.24814001  0.08613429    -0.11100
C1834       C  0.86947742  0.26284370  0.09660644     0.11500
C1835       C  0.86877960  0.27582538  0.12484613    -0.02900
C1836       C  0.84484666  0.27323978  0.14191107    -0.05700
C1837       C  0.82173785  0.25835968  0.13155859    -0.16400
C1838       C  0.82238470  0.24559189  0.10314984     0.02500
C1839       C  0.89369226  0.26511643  0.07687593     0.12400
C1840       C  0.89302743  0.29266046  0.13671575     0.63000
H1841       H  0.84388572  0.28305831  0.16353089     0.12500
C1842       C  0.79752537  0.23039464  0.09028569     0.55200
H1843       H  0.84722354  0.23883498  0.06425867     0.08200
C1844       C  0.91290270  0.24283798  0.07330190    -0.05600
C1845       C  0.93472462  0.24622217  0.05337645    -0.06300
C1846       C  0.93780402  0.27106777  0.03725449    -0.15900
C1847       C  0.91911850  0.29361854  0.04152249    -0.01500
C1848       C  0.89697180  0.29002306  0.06091890    -0.09000
C1849       C  0.91007546  0.21548496  0.09005623     0.65300
H1850       H  0.94936423  0.22932014  0.04980099     0.10700
C1851       C  0.92290883  0.32143905  0.02595721     0.63600
H1852       H  0.88195372  0.30669633  0.06385816     0.08100
F1853       F  0.79282866  0.20630094  0.10632147    -0.19400
F1854       F  0.80134968  0.22275607  0.06101519    -0.15600
F1855       F  0.77449695  0.24768546  0.09133118    -0.19100
F1856       F  0.89650791  0.31618252  0.11942221    -0.22500
F1857       F  0.91690335  0.27659621  0.13625535    -0.24000
F1858       F  0.88899048  0.30142258  0.16560148    -0.18000
F1859       F  0.92147773  0.31769329  0.99559860    -0.20400
F1860       F  0.94838044  0.33238025  0.03363617    -0.21600
F1861       F  0.90285321  0.34082093  0.03372929    -0.18800
F1862       F  0.93277314  0.19809224  0.08624554    -0.18900
F1863       F  0.88688647  0.20152076  0.07994680    -0.22700
F1864       F  0.90762051  0.22066677  0.12005849    -0.24300
C1865       C  0.24829046  0.36987968  0.32608619    -0.11100
C1866       C  0.24526238  0.35939169  0.35482739     0.11500
C1867       C  0.23319504  0.33294745  0.35931470    -0.02900
C1868       C  0.22575685  0.31705636  0.33431405    -0.05700
C1869       C  0.23044449  0.32679097  0.30551280    -0.16400
C1870       C  0.24151842  0.35373851  0.30108808     0.02500
C1871       C  0.25543525  0.37687651  0.37951234     0.12400
C1872       C  0.22852395  0.32151819  0.39020596     0.63000
H1873       H  0.21707568  0.29639997  0.33704824     0.12500
C1874       C  0.24613961  0.36539789  0.27029787     0.55200
H1875       H  0.25701407  0.39053381  0.32346713     0.08200
C1876       C  0.28406140  0.37954033  0.38568275    -0.05600
C1877       C  0.29270817  0.40053006  0.40540253    -0.06300
C1878       C  0.27357237  0.41841483  0.41877975    -0.15900
C1879       C  0.24489592  0.41424490  0.41454150    -0.01500
C1880       C  0.23624193  0.39348228  0.39456530    -0.09000
C1881       C  0.30540562  0.36121011  0.37051460     0.65300
H1882       H  0.31450499  0.40423054  0.40926969     0.10700
C1883       C  0.22371196  0.43241476  0.43016726     0.63600
H1884       H  0.21449289  0.39100610  0.38936024     0.08100
F1885       F  0.25357753  0.39332953  0.27122072    -0.19400
F1886       F  0.22214295  0.36328070  0.25344542    -0.15600
F1887       F  0.26708667  0.35062011  0.25669440    -0.19100
F1888       F  0.20918242  0.33792886  0.40446271    -0.22500
F1889       F  0.25293522  0.32163801  0.40649409    -0.24000
F1890       F  0.21894337  0.29428165  0.38938915    -0.18000
F1891       F  0.22600949  0.45994632  0.42115927    -0.20400
F1892       F  0.22805305  0.43093815  0.46047079    -0.21600
F1893       F  0.19699221  0.42380051  0.42410100    -0.18800
F1894       F  0.33151540  0.36477847  0.38280468    -0.18900
F1895       F  0.30646116  0.36790784  0.34078435    -0.22700
F1896       F  0.29859993  0.33329554  0.37333705    -0.24300
C1897       C  0.37362148  0.18599914  0.35542034    -0.11100
C1898       C  0.37035789  0.21153161  0.34041098     0.11500
C1899       C  0.38687129  0.23476840  0.34837012    -0.02900
C1900       C  0.40674004  0.23137782  0.37104886    -0.05700
C1901       C  0.41027304  0.20575119  0.38577118    -0.16400
C1902       C  0.39372761  0.18258131  0.37794235     0.02500
C1903       C  0.34884836  0.21371480  0.31696451     0.12400
C1904       C  0.38323498  0.26305974  0.33330045     0.63000
H1905       H  0.41979191  0.24871421  0.37757070     0.12500
C1906       C  0.39785165  0.15437918  0.39286395     0.55200
H1907       H  0.36048784  0.16869402  0.34902446     0.08200
C1908       C  0.35413163  0.20690136  0.28711944    -0.05600
C1909       C  0.33371857  0.21317689  0.26556925    -0.06300
C1910       C  0.30789626  0.22452582  0.27334902    -0.15900
C1911       C  0.30154418  0.22752852  0.30390076    -0.01500
C1912       C  0.32260073  0.22290866  0.32511402    -0.09000
C1913       C  0.38105076  0.19283853  0.27834247     0.65300
H1914       H  0.33811980  0.20993931  0.24235702     0.10700
C1915       C  0.27250877  0.23347187  0.31452185     0.63600
H1916       H  0.31883519  0.22652584  0.34841696     0.08100
F1917       F  0.37917567  0.13479117  0.38238130    -0.19400
F1918       F  0.39446282  0.15708753  0.42309472    -0.15600
F1919       F  0.42417933  0.14437511  0.38751313    -0.19100
F1920       F  0.35726276  0.27377350  0.33906472    -0.22500
F1921       F  0.38610167  0.26032042  0.30301449    -0.24000
F1922       F  0.40258588  0.28220652  0.34329977    -0.18000
F1923       F  0.27075596  0.23159241  0.34505540    -0.20400
F1924       F  0.25479003  0.21384745  0.30242064    -0.21600
F1925       F  0.26407432  0.26009913  0.30654842    -0.18800
F1926       F  0.38207076  0.18804161  0.24812243    -0.18900
F1927       F  0.38357668  0.16729874  0.29257453    -0.22700
F1928       F  0.40327032  0.20932783  0.28633576    -0.24300
C1929       C  0.32736142  0.36580350  0.18201292    -0.11100
C1930       C  0.35324364  0.36295125  0.19606117     0.11500
C1931       C  0.35977233  0.33840059  0.21236330    -0.02900
C1932       C  0.33979684  0.31738876  0.21426178    -0.05700
C1933       C  0.31376142  0.32034048  0.20054428    -0.16400
C1934       C  0.30751619  0.34455145  0.18350481     0.02500
C1935       C  0.37324039  0.38605024  0.19358309     0.12400
C1936       C  0.38758607  0.33459148  0.22796693     0.63000
H1937       H  0.34415882  0.29861693  0.22701884     0.12500
C1938       C  0.28063606  0.34734934  0.16591333     0.55200
H1939       H  0.32290279  0.38483738  0.16975651     0.08200
C1940       C  0.39015779  0.38906588  0.16854450    -0.05600
C1941       C  0.41081776  0.40952710  0.16933365    -0.06300
C1942       C  0.41424824  0.42742825  0.19378232    -0.15900
C1943       C  0.39607987  0.42554681  0.21803290    -0.01500
C1944       C  0.37591754  0.40463107  0.21748007    -0.09000
C1945       C  0.38621983  0.37096315  0.14112231     0.65300
H1946       H  0.42443650  0.41194440  0.15071792     0.10700
C1947       C  0.39685289  0.44457580  0.24501947     0.63600
H1948       H  0.36229139  0.40247297  0.23617076     0.08100
F1949       F  0.27692498  0.32388670  0.14828475    -0.19400
F1950       F  0.28056495  0.37057248  0.14758347    -0.15600
F1951       F  0.25869287  0.35002486  0.18494624    -0.19100
F1952       F  0.39016491  0.35393091  0.25064696    -0.22500
F1953       F  0.40870600  0.33835523  0.20814463    -0.24000
F1954       F  0.39058504  0.30808981  0.24007211    -0.18000
F1955       F  0.37158585  0.45807180  0.24744500    -0.20400
F1956       F  0.41709301  0.46472178  0.24398109    -0.21600
F1957       F  0.40147809  0.42853823  0.27013751    -0.18800
F1958       F  0.40573173  0.37654248  0.11988390    -0.18900
F1959       F  0.36041010  0.37611257  0.12868261    -0.22700
F1960       F  0.38839354  0.34294090  0.14852550    -0.24300
C1961       C  0.12290843  0.29784797  0.14975304    -0.11100
C1962       C  0.13345255  0.29121050  0.12190166     0.11500
C1963       C  0.16099362  0.28179143  0.11922669    -0.02900
C1964       C  0.17643060  0.27658993  0.14521879    -0.05700
C1965       C  0.16506285  0.28057979  0.17342937    -0.16400
C1966       C  0.13812225  0.29227097  0.17588629     0.02500
C1967       C  0.11407799  0.29055407  0.09641553     0.12400
C1968       C  0.17362474  0.27673070  0.08903193     0.63000
H1969       H  0.19720048  0.26816725  0.14370113     0.12500
C1970       C  0.12457580  0.29686648  0.20564878     0.55200
H1971       H  0.10182469  0.30549282  0.15082829     0.08200
C1972       C  0.09931340  0.26587927  0.08945993    -0.05600
C1973       C  0.08303556  0.26545742  0.06358430    -0.06300
C1974       C  0.07929484  0.28951782  0.04626915    -0.15900
C1975       C  0.09181477  0.31498594  0.05484678    -0.01500
C1976       C  0.10995431  0.31486591  0.07948535    -0.09000
C1977       C  0.09984141  0.24058191  0.10992180     0.65300
H1978       H  0.07210042  0.24663699  0.05718775     0.10700
C1979       C  0.08507413  0.34210615  0.03871411     0.63600
H1980       H  0.12066544  0.33375872  0.08605803     0.08100
F1981       F  0.12372845  0.27182735  0.22096928    -0.19400
F1982       F  0.09775651  0.30684112  0.20253091    -0.15600
F1983       F  0.13933904  0.31630876  0.22201989    -0.19100
F1984       F  0.17289242  0.30135323  0.07295044    -0.22500
F1985       F  0.15903345  0.25650615  0.07359169    -0.24000
F1986       F  0.20083957  0.26782598  0.09140588    -0.18000
F1987       F  0.09818959  0.36476700  0.05172360    -0.20400
F1988       F  0.05691634  0.34715507  0.03932667    -0.21600
F1989       F  0.09326603  0.34018745  0.00958117    -0.18800
F1990       F  0.08315462  0.21929740  0.09928842    -0.18900
F1991       F  0.09029443  0.24832287  0.13749092    -0.22700
F1992       F  0.12639187  0.23006892  0.11300230    -0.24300
C1993       C  0.23641364  0.10228616  0.06231507    -0.11100
C1994       C  0.21564762  0.12125470  0.07012523     0.11500
C1995       C  0.19070140  0.12270561  0.05346978    -0.02900
C1996       C  0.18627603  0.10273556  0.03105847    -0.05700
C1997       C  0.20659605  0.08276657  0.02430761    -0.16400
C1998       C  0.23255937  0.08303883  0.03935485     0.02500
C1999       C  0.22178015  0.14025654  0.09495807     0.12400
C2000       C  0.16944834  0.14566808  0.05872293     0.63000
H2001       H  0.16698550  0.10249357  0.01858682     0.12500
C2002       C  0.25715867  0.06431163  0.03211779     0.55200
H2003       H  0.25593457  0.10252539  0.07445336     0.08200
C2004       C  0.21677230  0.13263834  0.12464128    -0.05600
C2005       C  0.22460347  0.15130798  0.14722625    -0.06300
C2006       C  0.23862127  0.17612164  0.14094224    -0.15900
C2007       C  0.24472436  0.18303232  0.11123118    -0.01500
C2008       C  0.23584415  0.16492883  0.08860676    -0.09000
C2009       C  0.20416935  0.10458140  0.13240711     0.65300
H2010       H  0.22026912  0.14648252  0.17008113     0.10700
C2011       C  0.26021231  0.20945373  0.10332729     0.63600
H2012       H  0.24024406  0.16955358  0.06567421     0.08100
F2013       F  0.26593394  0.05038088  0.05745019    -0.19400
F2014       F  0.27846689  0.08090608  0.02243888    -0.15600
F2015       F  0.25180112  0.04450629  0.01052480    -0.19100
F2016       F  0.18138350  0.17151172  0.05442927    -0.22500
F2017       F  0.15983755  0.14431769  0.08732482    -0.24000
F2018       F  0.14704849  0.14350093  0.03942936    -0.18000
F2019       F  0.28695756  0.20770735  0.11438286    -0.20400
F2020       F  0.24716674  0.23266238  0.11525010    -0.21600
F2021       F  0.26150750  0.21324086  0.07296514    -0.18800
F2022       F  0.20087719  0.10165294  0.16266367    -0.18900
F2023       F  0.22119289  0.08309881  0.12287567    -0.22700
F2024       F  0.17855237  0.10186591  0.11888286    -0.24300
C2025       C  0.10455458  0.89481250  0.26283998    -0.11100
C2026       C  0.11825019  0.88475006  0.23776584     0.11500
C2027       C  0.11258133  0.89712966  0.20969088    -0.02900
C2028       C  0.09258404  0.91848817  0.20774933    -0.05700
C2029       C  0.07887553  0.92842982  0.23279308    -0.16400
C2030       C  0.08558122  0.91715184  0.26105983     0.02500
C2031       C  0.13689805  0.86019405  0.24149045     0.12400
C2032       C  0.12617627  0.88849833  0.18092747     0.63000
H2033       H  0.08708035  0.92714138  0.18621860     0.12500
C2034       C  0.07292163  0.92721665  0.28978550     0.55200
H2035       H  0.10855440  0.88491771  0.28410439     0.08200
C2036       C  0.16368585  0.86258556  0.25409914    -0.05600
C2037       C  0.18107114  0.83888418  0.25429343    -0.06300
C2038       C  0.17272121  0.81325667  0.24184071    -0.15900
C2039       C  0.14553640  0.81072533  0.22991758    -0.01500
C2040       C  0.12787032  0.83426755  0.23056747    -0.09000
C2041       C  0.17425334  0.89030453  0.26611182     0.65300
H2042       H  0.20187386  0.84044869  0.26326841     0.10700
C2043       C  0.13561571  0.78399883  0.21505960     0.63600
H2044       H  0.10716949  0.83308613  0.22123513     0.08100
F2045       F  0.05707614  0.90608525  0.30144662    -0.19400
F2046       F  0.05652123  0.95085377  0.28632864    -0.15600
F2047       F  0.09382622  0.93361929  0.30986195    -0.19100
F2048       F  0.10643040  0.87721314  0.16203467    -0.22500
F2049       F  0.14722047  0.86912126  0.18464371    -0.24000
F2050       F  0.13720489  0.91188900  0.16766052    -0.18000
F2051       F  0.13461905  0.76273887  0.23573634    -0.20400
F2052       F  0.15334541  0.77648674  0.19263414    -0.21600
F2053       F  0.10946948  0.78712795  0.20259529    -0.18800
F2054       F  0.20152842  0.88837257  0.27558515    -0.18900
F2055       F  0.15869922  0.89871690  0.28998716    -0.22700
F2056       F  0.17246475  0.91051366  0.24423570    -0.24300
C2057       C  0.90493307  0.87934911  0.23765885    -0.11100
C2058       C  0.89775208  0.86652111  0.21069454     0.11500
C2059       C  0.91102407  0.87441351  0.18429331    -0.02900
C2060       C  0.93140523  0.89512585  0.18586650    -0.05700
C2061       C  0.93762077  0.90884673  0.21258990    -0.16400
C2062       C  0.92456149  0.90079750  0.23904247     0.02500
C2063       C  0.87366976  0.84773946  0.21020348     0.12400
C2064       C  0.90236494  0.86245193  0.15437403     0.63000
H2065       H  0.94152913  0.90200572  0.16596034     0.12500
C2066       C  0.93053670  0.91563853  0.26824386     0.55200
H2067       H  0.89403033  0.87328004  0.25737700     0.08200
C2068       C  0.87572157  0.81891816  0.21712934    -0.05600
C2069       C  0.85158865  0.80271280  0.21576349    -0.06300
C2070       C  0.82579996  0.81475124  0.20844315    -0.15900
C2071       C  0.82391374  0.84371113  0.20156690    -0.01500
C2072       C  0.84800900  0.85974670  0.20293905    -0.09000
C2073       C  0.90313194  0.80559776  0.22629365     0.65300
H2074       H  0.85255860  0.78056828  0.22089787     0.10700
C2075       C  0.79694726  0.85752136  0.19156873     0.63600
H2076       H  0.84713288  0.88196467  0.19811975     0.08100
F2077       F  0.91553688  0.90452779  0.29120644    -0.19400
F2078       F  0.92370497  0.94372723  0.26571793    -0.15600
F2079       F  0.95822780  0.91310410  0.27568780    -0.19100
F2080       F  0.87615766  0.87204045  0.14692096    -0.22500
F2081       F  0.90220389  0.83353056  0.15533696    -0.24000
F2082       F  0.92010857  0.87038545  0.13221952    -0.18000
F2083       F  0.80077316  0.88485838  0.18238367    -0.20400
F2084       F  0.77851290  0.85808566  0.21462483    -0.21600
F2085       F  0.78569225  0.84278812  0.16797527    -0.18800
F2086       F  0.90068958  0.77711784  0.23121059    -0.18900
F2087       F  0.91275092  0.81787303  0.25218594    -0.22700
F2088       F  0.92236338  0.80934084  0.20439106    -0.24300
C2089       C  0.88291140  0.07790480  0.23622893    -0.11100
C2090       C  0.87427265  0.09239528  0.21071625     0.11500
C2091       C  0.88665363  0.08633122  0.18317352    -0.02900
C2092       C  0.90783870  0.06601277  0.18227765    -0.05700
C2093       C  0.91674793  0.05186611  0.20794190    -0.16400
C2094       C  0.90399259  0.05755250  0.23538632     0.02500
C2095       C  0.85244925  0.11416225  0.21370105     0.12400
C2096       C  0.87796313  0.10170710  0.15506360     0.63000
H2097       H  0.91826656  0.06158004  0.16171619     0.12500
C2098       C  0.91093252  0.04123416  0.26349912     0.55200
H2099       H  0.87289375  0.08263644  0.25696672     0.08200
C2100       C  0.82419094  0.10725720  0.21534514    -0.05600
C2101       C  0.80467252  0.12910533  0.21727578    -0.06300
C2102       C  0.81249254  0.15743704  0.21773913    -0.15900
C2103       C  0.84095822  0.16423229  0.21695079    -0.01500
C2104       C  0.86047783  0.14228080  0.21515285    -0.09000
C2105       C  0.81470796  0.07697795  0.21500958     0.65300
H2106       H  0.78291110  0.12415935  0.21792804     0.10700
C2107       C  0.85088431  0.19429491  0.21852000     0.63600
H2108       H  0.88231616  0.14687267  0.21441290     0.08100
F2109       F  0.90458838  0.05677912  0.28844495    -0.19400
F2110       F  0.93863715  0.03422818  0.26565855    -0.15600
F2111       F  0.89559965  0.01695077  0.26362417    -0.19100
F2112       F  0.88534052  0.12953901  0.15728716    -0.22500
F2113       F  0.84969130  0.10005451  0.15081106    -0.24000
F2114       F  0.89044898  0.09045897  0.13029596    -0.18000
F2115       F  0.87927520  0.19566820  0.22219232    -0.20400
F2116       F  0.83898619  0.20786259  0.24230274    -0.21600
F2117       F  0.84385985  0.20818020  0.19258129    -0.18800
F2118       F  0.78619780  0.07503891  0.21432974    -0.18900
F2119       F  0.82438343  0.06344357  0.24020175    -0.22700
F2120       F  0.82467472  0.06329831  0.19030656    -0.24300
C2121       C  0.08200888  0.10643412  0.25485005    -0.11100
C2122       C  0.09193814  0.11988513  0.22968639     0.11500
C2123       C  0.08500042  0.10988516  0.20099358    -0.02900
C2124       C  0.06766119  0.08653783  0.19852195    -0.05700
C2125       C  0.05817200  0.07276733  0.22376106    -0.16400
C2126       C  0.06521190  0.08276974  0.25239785     0.02500
C2127       C  0.11237733  0.14216228  0.23432146     0.12400
C2128       C  0.09678739  0.12306808  0.17331315     0.63000
H2129       H  0.06186853  0.07835786  0.17692356     0.12500
C2130       C  0.05541872  0.06816639  0.28013765     0.55200
H2131       H  0.08824481  0.11423740  0.27647533     0.08200
C2132       C  0.10482567  0.17063061  0.23706990    -0.05600
C2133       C  0.12594376  0.19050594  0.23913141    -0.06300
C2134       C  0.15403050  0.18251814  0.24076250    -0.15900
C2135       C  0.16106202  0.15352459  0.24201193    -0.01500
C2136       C  0.14000435  0.13390015  0.23770572    -0.09000
C2137       C  0.07475675  0.17978353  0.23895104     0.65300
H2138       H  0.12050126  0.21253623  0.23943921     0.10700
C2139       C  0.19012820  0.14291750  0.24903375     0.63600
H2140       H  0.14489726  0.11171582  0.23701205     0.08100
F2141       F  0.02690527  0.06722688  0.28008951    -0.19400
F2142       F  0.06399396  0.08190175  0.30566958    -0.15600
F2143       F  0.06590991  0.04115509  0.28107525    -0.19100
F2144       F  0.12519980  0.12003549  0.17365554    -0.22500
F2145       F  0.09021345  0.15125318  0.17211765    -0.24000
F2146       F  0.08654806  0.11066160  0.14770714    -0.18000
F2147       F  0.19048660  0.11457156  0.25554067    -0.20400
F2148       F  0.20072900  0.15689219  0.27351877    -0.21600
F2149       F  0.20698898  0.14698878  0.22505860    -0.18800
F2150       F  0.07212516  0.20850932  0.24236737    -0.18900
F2151       F  0.06287321  0.16716569  0.26310859    -0.22700
F2152       F  0.06029646  0.17214955  0.21363844    -0.24300
loop_ 
_geom_bond_atom_site_label_1 
_geom_bond_atom_site_label_2 
_geom_bond_distance 
_geom_bond_site_symmetry_2 
_ccdc_geom_bond_type 
N1            C6   1.352   1_565  A
N1            C5   1.351       .  A
N1           H33   1.034       .  S
N2            C9   1.351   1_455  A
N2           C10   1.350       .  A
N3            C8   1.351   1_565  A
N3            C7   1.353       .  A
N3           H34   1.035       .  S
N4           C11   1.352       .  A
N4           C12   1.351   1_655  A
C5           C13   1.389       .  A
C5           C21   1.417       .  A
C6           C22   1.411       .  A
C6           C14   1.385   1_545  A
C7           C15   1.387       .  A
C7           C24   1.416       .  A
C8           C23   1.415       .  A
C8           C16   1.387       .  A
C9           C21   1.412       .  A
C9           C17   1.386       .  A
C10          C24   1.414       .  A
C10          C18   1.388       .  A
C11          C19   1.387       .  A
C11          C22   1.414       .  A
C12          C20   1.387   1_455  A
C12          C23   1.412       .  A
C13          C14   1.375       .  A
C13          H25   1.082       .  S
C14          H26   1.082   1_565  S
C15          C16   1.376   1_565  A
C15          H27   1.082       .  S
C16          H28   1.082       .  S
C17          C18   1.369   1_655  A
C17          H29   1.082       .  S
C18          H30   1.082       .  S
C19          C20   1.368       .  A
C19          H31   1.082       .  S
C20          H32   1.082   1_655  S
C21        C2061   1.483       .  S
C22        C2093   1.485       .  S
C23        C2125   1.481       .  S
C24        C2029   1.484       .  S
O35         Ni41   1.923       .  S
O35          C56   1.271       .  A
O36         Ni59   1.885       .  S
O36          C45   1.263       .  A
O37         Ni41   1.920       .  S
O37         Ni59   1.895       .  S
O37         Ni53   1.915       .  S
O37          H60   0.944       .  S
C38        C1933   1.473       .  S
C38          O55   1.265       .  A
C38          O47   1.273       .  A
O39         Ni58   1.929       .  S
O39          C45   1.272       .  A
O40         Ni58   1.913       .  S
O40          C42   1.274       .  A
Ni41         O44   1.934       .  S
Ni41         O46   1.907       .  S
C42        C1910   1.487       .  S
C42          O52   1.276       .  A
O43         Ni59   1.894       .  S
O43          C49   1.262       .  A
O44          C49   1.272       .  A
C45        C2006   1.469       .  S
O46          C48   1.271       .  A
O47         Ni58   1.937       .  S
C48        C1965   1.478       .  S
C48          O54   1.276       .  A
C49        C2134   1.485       .  S
H50          O51   0.966       .  S
O51         Ni59   1.908       .  S
O51         Ni53   1.893       .  S
O51         Ni58   1.918       .  S
O52         Ni53   1.947       .  S
Ni53         O57   1.887       .  S
Ni53         O55   1.898       .  S
O54         Ni59   1.934       .  S
C56        C1869   1.466       .  S
C56          O57   1.263       .  A
O61         Ni67   1.934       .  S
O61          C82   1.270       .  A
O62         Ni85   1.903       .  S
O62          C71   1.267       .  A
O63         Ni67   1.918       .  S
O63         Ni85   1.906       .  S
O63         Ni79   1.906       .  S
O63          H86   0.966       .  S
C64        C1782   1.488       .  S
C64          O81   1.268       .  A
C64          O73   1.281       .  A
O65         Ni84   1.946       .  S
O65          C71   1.276       .  A
O66         Ni84   1.915       .  S
O66          C68   1.269       .  A
Ni67         O70   1.925       .  S
Ni67         O72   1.902       .  S
C68        C1750   1.502       .  S
C68          O78   1.273       .  A
O69         Ni85   1.913       .  S
O69          C75   1.273       .  A
O70          C75   1.276       .  A
C71        C1837   1.484       .  S
O72          C74   1.268       .  A
O73         Ni84   1.942       .  S
C74        C1814   1.481       .  S
C74          O80   1.272       .  A
C75        C2102   1.486       .  S
H76          O77   0.966       .  S
O77         Ni85   1.907       .  S
O77         Ni79   1.897       .  S
O77         Ni84   1.913       .  S
O78         Ni79   1.928       .  S
Ni79         O83   1.892       .  S
Ni79         O81   1.897       .  S
O80         Ni85   1.929       .  S
C82        C1718   1.473       .  S
C82          O83   1.261       .  A
O87         Ni93   1.927       .  S
O87         C108   1.271       .  A
O88        Ni111   1.892       .  S
O88          C97   1.265       .  A
O89         Ni93   1.905       .  S
O89        Ni111   1.897       .  S
O89        Ni105   1.906       .  S
O89         H112   0.966       .  S
C90        C2070   1.476       .  S
C90         O107   1.276       .  A
C90          O99   1.276       .  A
O91        Ni110   1.936       .  S
O91          C97   1.273       .  A
O92        Ni110   1.911       .  S
O92          C94   1.267       .  A
Ni93         O96   1.922       .  S
Ni93         O98   1.911       .  S
C94        C1677   1.505       .  S
C94         O104   1.273       .  A
O95        Ni111   1.917       .  S
O95         C101   1.275       .  A
O96         C101   1.277       .  A
C97        C1590   1.476       .  S
O98         C100   1.269       .  A
O99        Ni110   1.925       .  S
C100       C1558   1.491       .  S
C100        O106   1.274       .  A
C101       C1613   1.482       .  S
H102        O103   0.966       .  S
O103       Ni111   1.905       .  S
O103       Ni105   1.899       .  S
O103       Ni110   1.907       .  S
O104       Ni105   1.931       .  S
Ni105       O109   1.895       .  S
Ni105       O107   1.915       .  S
O106       Ni111   1.942       .  S
C108       C1645   1.459       .  S
C108        O109   1.263       .  A
O113       Ni119   1.931       .  S
O113        C134   1.273       .  A
O114       Ni137   1.881       .  S
O114        C123   1.260       .  A
O115       Ni119   1.920       .  S
O115       Ni137   1.889       .  S
O115       Ni131   1.894       .  S
O115        H138   0.966       .  S
C116       C2038   1.482       .  S
C116        O133   1.262       .  A
C116        O125   1.272       .  A
O117       Ni136   1.927       .  S
O117        C123   1.271       .  A
O118       Ni136   1.902       .  S
O118        C120   1.269       .  A
Ni119       O122   1.937       .  S
Ni119       O124   1.904       .  S
C120       C1526   1.494       .  S
C120        O130   1.282       .  A
O121       Ni137   1.884       .  S
O121        C127   1.263       .  A
O122        C127   1.275       .  A
C123       C1421   1.460       .  S
O124        C126   1.267       .  A
O125       Ni136   1.947       .  S
C126       C1398   1.484       .  S
C126        O132   1.274       .  A
C127       C1453   1.466       .  S
H128        O129   0.966       .  S
O129       Ni137   1.919       .  S
O129       Ni131   1.896       .  S
O129       Ni136   1.924       .  S
O130       Ni131   1.956       .  S
Ni131       O135   1.881       .  S
Ni131       O133   1.891       .  S
O132       Ni137   1.939       .  S
C134       C1494   1.468       .  S
C134        O135   1.262       .  A
N139        C144   1.347       .  A
N139        C143   1.348       .  A
N139        H171   1.042       .  S
N140        C147   1.345   1_545  A
N140        C148   1.342       .  A
N141        C146   1.350       .  A
N141        C145   1.351       .  A
N141        H172   1.042       .  S
N142        C149   1.345       .  A
N142        C150   1.344   1_565  A
C143        C151   1.389       .  A
C143        C159   1.408   1_556  A
C144        C160   1.402       .  A
C144        C152   1.386       .  A
C145        C153   1.387       .  A
C145        C162   1.410   1_556  A
C146        C161   1.410       .  A
C146        C154   1.388       .  A
C147        C159   1.400       .  A
C147        C155   1.384   1_565  A
C148        C162   1.402       .  A
C148        C156   1.388       .  A
C149        C157   1.386       .  A
C149        C160   1.402       .  A
C150        C158   1.386       .  A
C150        C161   1.401       .  A
C151        C152   1.371       .  A
C151        H163   1.082   1_556  S
C152        H164   1.082       .  S
C153        C154   1.373       .  A
C153        H165   1.082       .  S
C154        H166   1.082       .  S
C155        C156   1.374       .  A
C155        H167   1.082   1_545  S
C156        H168   1.082       .  S
C157        C158   1.373   1_565  A
C157        H169   1.083       .  S
C158        H170   1.082       .  S
C159       C1485   1.471       .  S
C160       C1357   1.466       .  S
C161       C1325   1.472       .  S
C162       C1997   1.471       .  S
N173        C178   1.350       .  A
N173        C177   1.354       .  A
N173        H205   1.036       .  S
N174        C181   1.353   1_455  A
N174        C182   1.348       .  A
N175        C180   1.356       .  A
N175        C179   1.351       .  A
N175        H206   1.038       .  S
N176        C183   1.348   1_455  A
N176        C184   1.350       .  A
C177        C185   1.386       .  A
C177        C193   1.415   1_556  A
C178        C194   1.414       .  A
C178        C186   1.387       .  A
C179        C187   1.389       .  A
C179        C196   1.417   1_556  A
C180        C195   1.415       .  A
C180        C188   1.385       .  A
C181        C193   1.412       .  A
C181        C189   1.384       .  A
C182        C196   1.414       .  A
C182        C190   1.389       .  A
C183        C191   1.387   1_655  A
C183        C194   1.409       .  A
C184        C192   1.386       .  A
C184        C195   1.408       .  A
C185        C186   1.375       .  A
C185        H197   1.082       .  S
C186        H198   1.082       .  S
C187        C188   1.378       .  A
C187        H199   1.082   1_556  S
C188        H200   1.082       .  S
C189        C190   1.370   1_655  A
C189        H201   1.082       .  S
C190        H202   1.082       .  S
C191        C192   1.370       .  A
C191        H203   1.082   1_455  S
C192        H204   1.082       .  S
C193       C1846   1.493       .  S
C194       C1261   1.476       .  S
C195       C1293   1.489       .  S
C196       C1974   1.479       .  S
N207        C212   1.353       .  A
N207        C211   1.354       .  A
N207        H239   1.035       .  S
N208        C215   1.351   1_565  A
N208        C216   1.352       .  A
N209        C214   1.353       .  A
N209        C213   1.353       .  A
N209        H240   1.038       .  S
N210        C217   1.351   1_566  A
N210        C218   1.352   1_556  A
C211        C219   1.387       .  A
C211        C227   1.418       .  A
C212        C228   1.419   1_556  A
C212        C220   1.388       .  A
C213        C221   1.387       .  A
C213        C230   1.414       .  A
C214        C229   1.415   1_556  A
C214        C222   1.387       .  A
C215        C227   1.416       .  A
C215        C223   1.387       .  A
C216        C230   1.413       .  A
C216        C224   1.385       .  A
C217        C225   1.388       .  A
C217        C228   1.415       .  A
C218        C226   1.385       .  A
C218        C229   1.413       .  A
C219        C220   1.377       .  A
C219        H231   1.082       .  S
C220        H232   1.082       .  S
C221        C222   1.375       .  A
C221        H233   1.082       .  S
C222        H234   1.082       .  S
C223        C224   1.373   1_545  A
C223        H235   1.082       .  S
C224        H236   1.082       .  S
C225        C226   1.373   1_545  A
C225        H237   1.082       .  S
C226        H238   1.082       .  S
C227       C1229   1.490       .  S
C228       C1805   1.487       .  S
C229       C1686   1.490       .  S
C230       C1206   1.489       .  S
N241        C246   1.351       .  A
N241        C245   1.354       .  A
N241        H273   1.040       .  S
N242        C249   1.350       .  A
N242        C250   1.349   1_455  A
N243        C248   1.354       .  A
N243        C247   1.352       .  A
N243        H274   1.039       .  S
N244        C251   1.347       .  A
N244        C252   1.349       .  A
C245        C253   1.387       .  A
C245        C261   1.413   1_556  A
C246        C262   1.413       .  A
C246        C254   1.387       .  A
C247        C255   1.388       .  A
C247        C264   1.415   1_556  A
C248        C263   1.415       .  A
C248        C256   1.387       .  A
C249        C261   1.410       .  A
C249        C257   1.385       .  A
C250        C264   1.410       .  A
C250        C258   1.387   1_655  A
C251        C259   1.387       .  A
C251        C262   1.409       .  A
C252        C260   1.385       .  A
C252        C263   1.408   1_455  A
C253        C254   1.374       .  A
C253        H265   1.082   1_556  S
C254        H266   1.082       .  S
C255        C256   1.374       .  A
C255        H267   1.082       .  S
C256        H268   1.082       .  S
C257        C258   1.375       .  A
C257        H269   1.082       .  S
C258        H270   1.082   1_455  S
C259        C260   1.373       .  A
C259        H271   1.083       .  S
C260        H272   1.082   1_455  S
C261       C1517   1.489       .  S
C262       C1142   1.477       .  S
C263       C1165   1.488       .  S
C264       C1654   1.482       .  S
O275       Ni281   1.923       .  S
O275        C296   1.268       .  A
O276       Ni299   1.877       .  S
O276        C285   1.260       .  A
O277       Ni281   1.919       .  S
O277       Ni299   1.891       .  S
O277       Ni293   1.912       .  S
O277        H300   0.966       .  S
C278       C1133   1.485       .  S
C278        O295   1.278       .  A
C278        O287   1.276       .  A
O279       Ni298   1.925       .  S
O279        C285   1.268       .  A
O280       Ni298   1.914       .  S
O280        C282   1.270       .  A
Ni281       O284   1.937       .  S
Ni281       O286   1.903       .  S
C282       C1110   1.488       .  S
C282        O292   1.273       .  A
O283       Ni299   1.888       .  S
O283        C289   1.265       .  A
O284        C289   1.277       .  A
C285       C1014   1.453       .  S
O286        C288   1.267       .  A
O287       Ni298   1.909       .  S
C288       C1069   1.488       .  S
C288        O294   1.273       .  A
C289       C1046   1.486       .  S
H290        O291   0.964       .  S
O291       Ni299   1.899       .  S
O291       Ni293   1.890       .  S
O291       Ni298   1.909       .  S
O292       Ni293   1.936       .  S
Ni293       O297   1.882       .  S
Ni293       O295   1.925       .  S
O294       Ni299   1.944       .  S
C296       C1366   1.451       .  S
C296        O297   1.266       .  A
N301        C306   1.356   1_565  A
N301        C305   1.351       .  A
N301        H333   1.041       .  S
N302        C309   1.347   1_455  A
N302        C310   1.352       .  A
N303        C308   1.350   1_565  A
N303        C307   1.356       .  A
N303        H334   1.041       .  S
N304        C311   1.354   1_455  A
N304        C312   1.350       .  A
C305        C313   1.390       .  A
C305        C321   1.416       .  A
C306        C322   1.415       .  A
C306        C314   1.386       .  A
C307        C315   1.385       .  A
C307        C324   1.415       .  A
C308        C323   1.414       .  A
C308        C316   1.388       .  A
C309        C321   1.410       .  A
C309        C317   1.388   1_655  A
C310        C324   1.411       .  A
C310        C318   1.385       .  A
C311        C319   1.384   1_655  A
C311        C322   1.413       .  A
C312        C320   1.388       .  A
C312        C323   1.416       .  A
C313        C314   1.375   1_565  A
C313        H325   1.082       .  S
C314        H326   1.082       .  S
C315        C316   1.378   1_565  A
C315        H327   1.082       .  S
C316        H328   1.082       .  S
C317        C318   1.375       .  A
C317        H329   1.082   1_455  S
C318        H330   1.082       .  S
C319        C320   1.377       .  A
C319        H331   1.082   1_455  S
C320        H332   1.082       .  S
C321        C909   1.478       .  S
C322        C941   1.501       .  S
C323        C973   1.486       .  S
C324       C1101   1.496       .  S
O335       Ni341   1.919       .  S
O335        C356   1.267       .  A
O336       Ni359   1.870       .  S
O336        C345   1.259       .  A
O337       Ni341   1.927       .  S
O337       Ni359   1.905       .  S
O337       Ni353   1.919       .  S
O337        H360   0.966       .  S
C338        C982   1.480       .  S
C338        O355   1.268       .  A
C338        O347   1.277       .  A
O339       Ni358   1.939       .  S
O339        C345   1.272       .  A
O340       Ni358   1.907       .  S
O340        C342   1.266       .  A
Ni341       O344   1.922       .  S
Ni341       O346   1.902       .  S
C342       C1302   1.496       .  S
C342        O352   1.274       .  A
O343       Ni359   1.903       .  S
O343        C349   1.263       .  A
O344        C349   1.271       .  A
C345        C854   1.455       .  S
O346        C348   1.268       .  A
O347       Ni358   1.944       .  S
C348        C813   1.489       .  S
C348        O354   1.278       .  A
C349        C877   1.498       .  S
H350        O351   0.966       .  S
O351       Ni359   1.901       .  S
O351       Ni353   1.891       .  S
O351       Ni358   1.927       .  S
O352       Ni353   1.936       .  S
Ni353       O357   1.878       .  S
Ni353       O355   1.897       .  S
O354       Ni359   1.945       .  S
C356       C1334   1.453       .  S
C356        O357   1.260       .  A
O361       Ni367   1.928       .  S
O361        C382   1.268       .  A
O362       Ni385   1.898       .  S
O362        C371   1.266       .  A
O363       Ni367   1.912       .  S
O363       Ni385   1.897       .  S
O363       Ni379   1.903       .  S
O363        H386   0.966       .  S
C364        C950   1.512       .  S
C364        O381   1.267       .  A
C364        O373   1.279       .  A
O365       Ni384   1.939       .  S
O365        C371   1.275       .  A
O366       Ni384   1.906       .  S
O366        C368   1.267       .  A
Ni367       O370   1.919       .  S
Ni367       O372   1.905       .  S
C368       C1238   1.492       .  S
C368        O378   1.276       .  A
O369       Ni385   1.932       .  S
O369        C375   1.279       .  A
O370        C375   1.277       .  A
C371        C749   1.479       .  S
O372        C374   1.265       .  A
O373       Ni384   1.951       .  S
C374        C717   1.499       .  S
C374        O380   1.273       .  A
C375        C781   1.493       .  S
H376        O377   0.966       .  S
O377       Ni385   1.928       .  S
O377       Ni379   1.908       .  S
O377       Ni384   1.919       .  S
O378       Ni379   1.940       .  S
Ni379       O383   1.896       .  S
Ni379       O381   1.906       .  S
O380       Ni385   1.929       .  S
C382       C1270   1.463       .  S
C382        O383   1.263       .  A
O387       Ni393   1.940       .  S
O387        C408   1.274       .  A
O388       Ni411   1.903       .  S
O388        C397   1.264       .  A
O389       Ni393   1.916       .  S
O389       Ni411   1.911       .  S
O389       Ni405   1.907       .  S
O389        H412   0.966       .  S
C390        C685   1.473       .  S
C390        O407   1.273       .  A
C390        O399   1.275       .  A
O391       Ni410   1.936       .  S
O391        C397   1.271       .  A
O392       Ni410   1.909       .  S
O392        C394   1.269       .  A
Ni393       O396   1.930       .  S
Ni393       O398   1.908       .  S
C394        C653   1.493       .  S
C394        O404   1.274       .  A
O395       Ni411   1.892       .  S
O395        C401   1.269       .  A
O396        C401   1.273       .  A
C397       C1174   1.475       .  S
O398        C400   1.271       .  A
O399       Ni410   1.925       .  S
C400       C1197   1.501       .  S
C400        O406   1.274       .  A
C401        C918   1.494       .  S
H402        O403   0.965       .  S
O403       Ni411   1.896       .  S
O403       Ni405   1.907       .  S
O403       Ni410   1.916       .  S
O404       Ni405   1.941       .  S
Ni405       O409   1.906       .  S
Ni405       O407   1.907       .  S
O406       Ni411   1.941       .  S
C408        C621   1.490       .  S
C408        O409   1.266       .  A
N413        C418   1.352       .  A
N413        C417   1.357       .  A
N413        H445   1.032       .  S
N414        C421   1.352       .  A
N414        C422   1.349       .  A
N415        C420   1.357       .  A
N415        C419   1.354       .  A
N415        H446   1.036       .  S
N416        C423   1.351       .  A
N416        C424   1.353       .  A
C417        C425   1.386       .  A
C417        C433   1.421       .  A
C418        C434   1.422       .  A
C418        C426   1.389       .  A
C419        C427   1.388       .  A
C419        C436   1.421       .  A
C420        C435   1.420       .  A
C420        C428   1.386       .  A
C421        C433   1.415       .  A
C421        C429   1.386       .  A
C422        C436   1.415       .  A
C422        C430   1.388       .  A
C423        C431   1.389       .  A
C423        C434   1.420       .  A
C424        C432   1.385       .  A
C424        C435   1.416       .  A
C425        C426   1.374       .  A
C425        H437   1.082       .  S
C426        H438   1.082       .  S
C427        C428   1.375       .  A
C427        H439   1.082       .  S
C428        H440   1.082       .  S
C429        C430   1.369       .  A
C429        H441   1.082       .  S
C430        H442   1.082       .  S
C431        C432   1.372       .  A
C431        H443   1.082       .  S
C432        H444   1.082       .  S
C433       C1078   1.496       .  S
C434        C886   1.485       .  S
C435        C790   1.498       .  S
C436        C694   1.483       .  S
N447        C452   1.351       .  A
N447        C451   1.351       .  A
N447        H479   1.038       .  S
N448        C455   1.351       .  A
N448        C456   1.351       .  A
N449        C454   1.353       .  A
N449        C453   1.352       .  A
N449        H480   1.037       .  S
N450        C457   1.348       .  A
N450        C458   1.349       .  A
C451        C459   1.388       .  A
C451        C467   1.412       .  A
C452        C468   1.411       .  A
C452        C460   1.386       .  A
C453        C461   1.389       .  A
C453        C470   1.417       .  A
C454        C469   1.412       .  A
C454        C462   1.385       .  A
C455        C467   1.414       .  A
C455        C463   1.386       .  A
C456        C470   1.414       .  A
C456        C464   1.386       .  A
C457        C465   1.387       .  A
C457        C468   1.409       .  A
C458        C466   1.386       .  A
C458        C469   1.407       .  A
C459        C460   1.375       .  A
C459        H471   1.082       .  S
C460        H472   1.082       .  S
C461        C462   1.375       .  A
C461        H473   1.082       .  S
C462        H474   1.082       .  S
C463        C464   1.376       .  A
C463        H475   1.083       .  S
C464        H476   1.082       .  S
C465        C466   1.368       .  A
C465        H477   1.082       .  S
C466        H478   1.082       .  S
C467       C1942   1.483       .  S
C468       C1462   1.480       .  S
C469       C1622   1.480       .  S
C470       C1773   1.485       .  S
N481        C486   1.355       .  A
N481        C485   1.354       .  A
N481        H513   1.034       .  S
N482        C489   1.355       .  A
N482        C490   1.355       .  A
N483        C488   1.355       .  A
N483        C487   1.355       .  A
N483        H514   1.035       .  S
N484        C491   1.354       .  A
N484        C492   1.354       .  A
C485        C493   1.387       .  A
C485        C501   1.419       .  A
C486        C502   1.421       .  A
C486        C494   1.387       .  A
C487        C495   1.386       .  A
C487        C504   1.419       .  A
C488        C503   1.422       .  A
C488        C496   1.389       .  A
C489        C501   1.419       .  A
C489        C497   1.386       .  A
C490        C504   1.419       .  A
C490        C498   1.387       .  A
C491        C499   1.387       .  A
C491        C502   1.421       .  A
C492        C500   1.387       .  A
C492        C503   1.420       .  A
C493        C494   1.377       .  A
C493        H505   1.082       .  S
C494        H506   1.082       .  S
C495        C496   1.376       .  A
C495        H507   1.082       .  S
C496        H508   1.082       .  S
C497        C498   1.372       .  A
C497        H509   1.082       .  S
C498        H510   1.082       .  S
C499        C500   1.374       .  A
C499        H511   1.082       .  S
C500        H512   1.082       .  S
C501       C1549   1.496       .  S
C502        C662   1.498       .  S
C503        C726   1.495       .  S
C504       C1741   1.497       .  S
N515        C520   1.346       .  A
N515        C519   1.353       .  A
N515        H547   1.039       .  S
N516        C523   1.347       .  A
N516        C524   1.344       .  A
N517        C522   1.353       .  A
N517        C521   1.351       .  A
N517        H548   1.042       .  S
N518        C525   1.349       .  A
N518        C526   1.350       .  A
C519        C527   1.387       .  A
C519        C535   1.413       .  A
C520        C536   1.410       .  A
C520        C528   1.387       .  A
C521        C529   1.388       .  A
C521        C538   1.414       .  A
C522        C537   1.411       .  A
C522        C530   1.386       .  A
C523        C535   1.405       .  A
C523        C531   1.384       .  A
C524        C538   1.405       .  A
C524        C532   1.388       .  A
C525        C533   1.387       .  A
C525        C536   1.411       .  A
C526        C534   1.385       .  A
C526        C537   1.410       .  A
C527        C528   1.379       .  A
C527        H539   1.082       .  S
C528        H540   1.083       .  S
C529        C530   1.379       .  A
C529        H541   1.082       .  S
C530        H542   1.082       .  S
C531        C532   1.374       .  A
C531        H543   1.082       .  S
C532        H544   1.083       .  S
C533        C534   1.374       .  A
C533        H545   1.082       .  S
C534        H546   1.082       .  S
C535        C630   1.487       .  S
C536       C1581   1.477       .  S
C537       C1389   1.490       .  S
C538       C1037   1.476       .  S
N549        C554   1.349       .  A
N549        C553   1.349       .  A
N549        H581   1.036       .  S
N550        C557   1.348       .  A
N550        C558   1.347       .  A
N551        C556   1.349       .  A
N551        C555   1.349       .  A
N551        H582   1.030       .  S
N552        C559   1.349       .  A
N552        C560   1.350       .  A
C553        C561   1.388       .  A
C553        C569   1.410       .  A
C554        C570   1.406       .  A
C554        C562   1.385       .  A
C555        C563   1.387       .  A
C555        C572   1.411       .  A
C556        C571   1.413       .  A
C556        C564   1.388       .  A
C557        C569   1.403       .  A
C557        C565   1.384       .  A
C558        C572   1.412       .  A
C558        C566   1.390       .  A
C559        C567   1.387       .  A
C559        C570   1.411       .  A
C560        C568   1.386       .  A
C560        C571   1.410       .  A
C561        C562   1.374       .  A
C561        H573   1.082       .  S
C562        H574   1.082       .  S
C563        C564   1.374       .  A
C563        H575   1.082       .  S
C564        H576   1.082       .  S
C565        C566   1.367       .  A
C565        H577   1.082       .  S
C566        H578   1.082       .  S
C567        C568   1.369       .  A
C567        H579   1.082       .  S
C568        H580   1.082       .  S
C569        C845   1.474       .  S
C570       C1878   1.476       .  S
C571       C1430   1.478       .  S
C572       C1005   1.472       .  S
N583        C588   1.353       .  A
N583        C587   1.353       .  A
N583        H615   1.040       .  S
N584        C591   1.346       .  A
N584        C592   1.348       .  A
N585        C590   1.350       .  A
N585        C589   1.354       .  A
N585        H616   1.039       .  S
N586        C593   1.353       .  A
N586        C594   1.352       .  A
C587        C595   1.387       .  A
C587        C603   1.414       .  A
C588        C604   1.414       .  A
C588        C596   1.387       .  A
C589        C597   1.387       .  A
C589        C606   1.415       .  A
C590        C605   1.413       .  A
C590        C598   1.387       .  A
C591        C603   1.406       .  A
C591        C599   1.387       .  A
C592        C606   1.407       .  A
C592        C600   1.385       .  A
C593        C601   1.386       .  A
C593        C604   1.415       .  A
C594        C602   1.387       .  A
C594        C605   1.416       .  A
C595        C596   1.376       .  A
C595        H607   1.082       .  S
C596        H608   1.082       .  S
C597        C598   1.378       .  A
C597        H609   1.082       .  S
C598        H610   1.082       .  S
C599        C600   1.373       .  A
C599        H611   1.082       .  S
C600        H612   1.082       .  S
C601        C602   1.376       .  A
C601        H613   1.082       .  S
C602        H614   1.082       .  S
C603       C1901   1.480       .  S
C604        C822   1.492       .  S
C605        C758   1.489       .  S
C606       C1709   1.488       .  S
C617        C618   1.399       .  A
C617        C622   1.408       .  A
C617        H627   1.083       .  S
C618        C619   1.414       .  A
C618        C623   1.484       .  S
C619        C620   1.409       .  A
C619        C624   1.520       .  S
C620        C621   1.408       .  A
C620        H625   1.083       .  S
C621        C622   1.423       .  A
C622        C626   1.518       .  S
C623        C628   1.417       .  A
C623        C632   1.403       .  A
C624        F640   1.383       .  S
C624        F641   1.382       .  S
C624        F642   1.384       .  S
C626        F637   1.385       .  S
C626        F638   1.382       .  S
C626        F639   1.382       .  S
C628        C629   1.404       .  A
C628        C633   1.519       .  S
C629        C630   1.399       .  A
C629        H634   1.083       .  S
C630        C631   1.419       .  A
C631        C632   1.409       .  A
C631        C635   1.520       .  S
C632        H636   1.083       .  S
C633        F646   1.385       .  S
C633        F647   1.382       .  S
C633        F648   1.382       .  S
C635        F643   1.385       .  S
C635        F644   1.383       .  S
C635        F645   1.382       .  S
C649        C650   1.405       .  A
C649        C654   1.415       .  A
C649        H659   1.083       .  S
C650        C651   1.415       .  A
C650        C655   1.493       .  S
C651        C652   1.406       .  A
C651        C656   1.520       .  S
C652        C653   1.406       .  A
C652        H657   1.083       .  S
C653        C654   1.420       .  A
C654        C658   1.517       .  S
C655        C660   1.418       .  A
C655        C664   1.404       .  A
C656        F672   1.382       .  S
C656        F673   1.382       .  S
C656        F674   1.384       .  S
C658        F669   1.378       .  S
C658        F670   1.385       .  S
C658        F671   1.384       .  S
C660        C661   1.410       .  A
C660        C665   1.520       .  S
C661        C662   1.404       .  A
C661        H666   1.083       .  S
C662        C663   1.417       .  A
C663        C664   1.411       .  A
C663        C667   1.518       .  S
C664        H668   1.083       .  S
C665        F678   1.384       .  S
C665        F679   1.382       .  S
C665        F680   1.383       .  S
C667        F675   1.384       .  S
C667        F676   1.382       .  S
C667        F677   1.382       .  S
C681        C682   1.399       .  A
C681        C686   1.401       .  A
C681        H691   1.084       .  S
C682        C683   1.415       .  A
C682        C687   1.476       .  S
C683        C684   1.406       .  A
C683        C688   1.519       .  S
C684        C685   1.404       .  A
C684        H689   1.083       .  S
C685        C686   1.417       .  A
C686        C690   1.518       .  S
C687        C692   1.415       .  A
C687        C696   1.402       .  A
C688        F704   1.382       .  S
C688        F705   1.382       .  S
C688        F706   1.385       .  S
C690        F701   1.385       .  S
C690        F702   1.382       .  S
C690        F703   1.382       .  S
C692        C693   1.404       .  A
C692        C697   1.520       .  S
C693        C694   1.402       .  A
C693        H698   1.083       .  S
C694        C695   1.414       .  A
C695        C696   1.404       .  A
C695        C699   1.518       .  S
C696        H700   1.083       .  S
C697        F710   1.384       .  S
C697        F711   1.382       .  S
C697        F712   1.382       .  S
C699        F707   1.385       .  S
C699        F708   1.382       .  S
C699        F709   1.383       .  S
C713        C714   1.397       .  A
C713        C718   1.407       .  A
C713        H723   1.083       .  S
C714        C715   1.413       .  A
C714        C719   1.485       .  S
C715        C716   1.409       .  A
C715        C720   1.519       .  S
C716        C717   1.411       .  A
C716        H721   1.083       .  S
C717        C718   1.430       .  A
C718        C722   1.522       .  S
C719        C724   1.417       .  A
C719        C728   1.401       .  A
C720        F736   1.383       .  S
C720        F737   1.381       .  S
C720        F738   1.385       .  S
C722        F733   1.382       .  S
C722        F734   1.385       .  S
C722        F735   1.384       .  S
C724        C725   1.410       .  A
C724        C729   1.521       .  S
C725        C726   1.405       .  A
C725        H730   1.083       .  S
C726        C727   1.418       .  A
C727        C728   1.407       .  A
C727        C731   1.518       .  S
C728        H732   1.083       .  S
C729        F742   1.384       .  S
C729        F743   1.383       .  S
C729        F744   1.381       .  S
C731        F739   1.383       .  S
C731        F740   1.381       .  S
C731        F741   1.385       .  S
C745        C746   1.403       .  A
C745        C750   1.408       .  A
C745        H755   1.083       .  S
C746        C747   1.418       .  A
C746        C751   1.487       .  S
C747        C748   1.406       .  A
C747        C752   1.520       .  S
C748        C749   1.403       .  A
C748        H753   1.083       .  S
C749        C750   1.418       .  A
C750        C754   1.519       .  S
C751        C756   1.419       .  A
C751        C760   1.401       .  A
C752        F768   1.382       .  S
C752        F769   1.383       .  S
C752        F770   1.385       .  S
C754        F765   1.383       .  S
C754        F766   1.385       .  S
C754        F767   1.384       .  S
C756        C757   1.408       .  A
C756        C761   1.519       .  S
C757        C758   1.402       .  A
C757        H762   1.083       .  S
C758        C759   1.417       .  A
C759        C760   1.405       .  A
C759        C763   1.519       .  S
C760        H764   1.083       .  S
C761        F774   1.385       .  S
C761        F775   1.382       .  S
C761        F776   1.383       .  S
C763        F771   1.381       .  S
C763        F772   1.383       .  S
C763        F773   1.384       .  S
C777        C778   1.404       .  A
C777        C782   1.413       .  A
C777        H787   1.083       .  S
C778        C779   1.416       .  A
C778        C783   1.492       .  S
C779        C780   1.406       .  A
C779        C784   1.521       .  S
C780        C781   1.408       .  A
C780        H785   1.081       .  S
C781        C782   1.420       .  A
C782        C786   1.518       .  S
C783        C788   1.419       .  A
C783        C792   1.403       .  A
C784        F800   1.382       .  S
C784        F801   1.383       .  S
C784        F802   1.385       .  S
C786        F797   1.384       .  S
C786        F798   1.383       .  S
C786        F799   1.383       .  S
C788        C789   1.411       .  A
C788        C793   1.520       .  S
C789        C790   1.404       .  A
C789        H794   1.083       .  S
C790        C791   1.416       .  A
C791        C792   1.409       .  A
C791        C795   1.517       .  S
C792        H796   1.083       .  S
C793        F806   1.384       .  S
C793        F807   1.382       .  S
C793        F808   1.383       .  S
C795        F803   1.383       .  S
C795        F804   1.383       .  S
C795        F805   1.384       .  S
C809        C810   1.398       .  A
C809        C814   1.406       .  A
C809        H819   1.083       .  S
C810        C811   1.415       .  A
C810        C815   1.487       .  S
C811        C812   1.410       .  A
C811        C816   1.518       .  S
C812        C813   1.407       .  A
C812        H817   1.083       .  S
C813        C814   1.425       .  A
C814        C818   1.521       .  S
C815        C820   1.417       .  A
C815        C824   1.403       .  A
C816        F832   1.382       .  S
C816        F833   1.382       .  S
C816        F834   1.385       .  S
C818        F829   1.382       .  S
C818        F830   1.385       .  S
C818        F831   1.382       .  S
C820        C821   1.407       .  A
C820        C825   1.520       .  S
C821        C822   1.402       .  A
C821        H826   1.083       .  S
C822        C823   1.417       .  A
C823        C824   1.410       .  A
C823        C827   1.517       .  S
C824        H828   1.083       .  S
C825        F838   1.384       .  S
C825        F839   1.382       .  S
C825        F840   1.382       .  S
C827        F835   1.385       .  S
C827        F836   1.383       .  S
C827        F837   1.382       .  S
C841        C842   1.398       .  A
C841        C846   1.398       .  A
C841        H851   1.083       .  S
C842        C843   1.418       .  A
C842        C847   1.468       .  S
C843        C844   1.402       .  A
C843        C848   1.521       .  S
C844        C845   1.399       .  A
C844        H849   1.083       .  S
C845        C846   1.414       .  A
C846        C850   1.520       .  S
C847        C852   1.412       .  A
C847        C856   1.402       .  A
C848        F864   1.382       .  S
C848        F865   1.380       .  S
C848        F866   1.385       .  S
C850        F861   1.385       .  S
C850        F862   1.382       .  S
C850        F863   1.382       .  S
C852        C853   1.405       .  A
C852        C857   1.518       .  S
C853        C854   1.402       .  A
C853        H858   1.083       .  S
C854        C855   1.408       .  A
C855        C856   1.397       .  A
C855        C859   1.518       .  S
C856        H860   1.084       .  S
C857        F870   1.384       .  S
C857        F871   1.382       .  S
C857        F872   1.381       .  S
C859        F867   1.384       .  S
C859        F868   1.384       .  S
C859        F869   1.383       .  S
C873        C874   1.399       .  A
C873        C878   1.409       .  A
C873        H883   1.083       .  S
C874        C875   1.411       .  A
C874        C879   1.479       .  S
C875        C876   1.401       .  A
C875        C880   1.522       .  S
C876        C877   1.411       .  A
C876        H881   1.081       .  S
C877        C878   1.429       .  A
C878        C882   1.520       .  S
C879        C884   1.416       .  A
C879        C888   1.401       .  A
C880        F896   1.381       .  S
C880        F897   1.382       .  S
C880        F898   1.384       .  S
C882        F893   1.385       .  S
C882        F894   1.383       .  S
C882        F895   1.382       .  S
C884        C885   1.405       .  A
C884        C889   1.520       .  S
C885        C886   1.402       .  A
C885        H890   1.083       .  S
C886        C887   1.415       .  A
C887        C888   1.404       .  A
C887        C891   1.518       .  S
C888        H892   1.083       .  S
C889        F902   1.385       .  S
C889        F903   1.381       .  S
C889        F904   1.382       .  S
C891        F899   1.385       .  S
C891        F900   1.381       .  S
C891        F901   1.382       .  S
C905        C906   1.402       .  A
C905        C910   1.404       .  A
C905        H915   1.083       .  S
C906        C907   1.415       .  A
C906        C911   1.474       .  S
C907        C908   1.400       .  A
C907        C912   1.520       .  S
C908        C909   1.400       .  A
C908        H913   1.083       .  S
C909        C910   1.413       .  A
C910        C914   1.517       .  S
C911        C916   1.409       .  A
C911        C920   1.396       .  A
C912        F928   1.382       .  S
C912        F929   1.382       .  S
C912        F930   1.384       .  S
C914        F925   1.385       .  S
C914        F926   1.383       .  S
C914        F927   1.382       .  S
C916        C917   1.402       .  A
C916        C921   1.521       .  S
C917        C918   1.414       .  A
C917        H922   1.082       .  S
C918        C919   1.428       .  A
C919        C920   1.403       .  A
C919        C923   1.521       .  S
C920        H924   1.083       .  S
C921        F934   1.385       .  S
C921        F935   1.383       .  S
C921        F936   1.383       .  S
C923        F931   1.385       .  S
C923        F932   1.383       .  S
C923        F933   1.383       .  S
C937        C938   1.404       .  A
C937        C942   1.411       .  A
C937        H947   1.083       .  S
C938        C939   1.417       .  A
C938        C943   1.494       .  S
C939        C940   1.412       .  A
C939        C944   1.517       .  S
C940        C941   1.405       .  A
C940        H945   1.083       .  S
C941        C942   1.418       .  A
C942        C946   1.518       .  S
C943        C948   1.418       .  A
C943        C952   1.400       .  A
C944        F960   1.383       .  S
C944        F961   1.381       .  S
C944        F962   1.384       .  S
C946        F957   1.381       .  S
C946        F958   1.385       .  S
C946        F959   1.383       .  S
C948        C949   1.410       .  A
C948        C953   1.520       .  S
C949        C950   1.413       .  A
C949        H954   1.084       .  S
C950        C951   1.433       .  A
C951        C952   1.411       .  A
C951        C955   1.522       .  S
C952        H956   1.083       .  S
C953        F966   1.384       .  S
C953        F967   1.383       .  S
C953        F968   1.381       .  S
C955        F963   1.385       .  S
C955        F964   1.382       .  S
C955        F965   1.383       .  S
C969        C970   1.402       .  A
C969        C974   1.406       .  A
C969        H979   1.083       .  S
C970        C971   1.414       .  A
C970        C975   1.480       .  S
C971        C972   1.405       .  A
C971        C976   1.519       .  S
C972        C973   1.403       .  A
C972        H977   1.083       .  S
C973        C974   1.417       .  A
C974        C978   1.520       .  S
C975        C980   1.415       .  A
C975        C984   1.400       .  A
C976        F992   1.382       .  S
C976        F993   1.381       .  S
C976        F994   1.384       .  S
C978        F989   1.382       .  S
C978        F990   1.382       .  S
C978        F991   1.385       .  S
C980        C981   1.407       .  A
C980        C985   1.522       .  S
C981        C982   1.406       .  A
C981        H986   1.083       .  S
C982        C983   1.419       .  A
C983        C984   1.406       .  A
C983        C987   1.519       .  S
C984        H988   1.083       .  S
C985        F998   1.384       .  S
C985        F999   1.382       .  S
C985       F1000   1.382       .  S
C987        F995   1.384       .  S
C987        F996   1.382       .  S
C987        F997   1.384       .  S
C1001      C1002   1.403       .  A
C1001      C1006   1.401       .  A
C1001      H1011   1.083       .  S
C1002      C1003   1.412       .  A
C1002      C1007   1.466       .  S
C1003      C1004   1.398       .  A
C1003      C1008   1.521       .  S
C1004      C1005   1.401       .  A
C1004      H1009   1.084       .  S
C1005      C1006   1.410       .  A
C1006      C1010   1.518       .  S
C1007      C1012   1.414       .  A
C1007      C1016   1.400       .  A
C1008      F1024   1.382       .  S
C1008      F1025   1.383       .  S
C1008      F1026   1.384       .  S
C1010      F1021   1.383       .  S
C1010      F1022   1.384       .  S
C1010      F1023   1.382       .  S
C1012      C1013   1.396       .  A
C1012      C1017   1.522       .  S
C1013      C1014   1.400       .  A
C1013      H1018   1.084       .  S
C1014      C1015   1.414       .  A
C1015      C1016   1.400       .  A
C1015      C1019   1.516       .  S
C1016      H1020   1.085       .  S
C1017      F1030   1.385       .  S
C1017      F1031   1.382       .  S
C1017      F1032   1.382       .  S
C1019      F1027   1.384       .  S
C1019      F1028   1.383       .  S
C1019      F1029   1.381       .  S
C1033      C1034   1.403       .  A
C1033      C1038   1.403       .  A
C1033      H1043   1.084       .  S
C1034      C1035   1.413       .  A
C1034      C1039   1.470       .  S
C1035      C1036   1.395       .  A
C1035      C1040   1.521       .  S
C1036      C1037   1.403       .  A
C1036      H1041   1.084       .  S
C1037      C1038   1.415       .  A
C1038      C1042   1.517       .  S
C1039      C1044   1.409       .  A
C1039      C1048   1.396       .  A
C1040      F1056   1.381       .  S
C1040      F1057   1.381       .  S
C1040      F1058   1.385       .  S
C1042      F1053   1.384       .  S
C1042      F1054   1.383       .  S
C1042      F1055   1.382       .  S
C1044      C1045   1.404       .  A
C1044      C1049   1.520       .  S
C1045      C1046   1.410       .  A
C1045      H1050   1.082       .  S
C1046      C1047   1.427       .  A
C1047      C1048   1.401       .  A
C1047      C1051   1.522       .  S
C1048      H1052   1.084       .  S
C1049      F1062   1.384       .  S
C1049      F1063   1.382       .  S
C1049      F1064   1.382       .  S
C1051      F1059   1.382       .  S
C1051      F1060   1.383       .  S
C1051      F1061   1.385       .  S
C1065      C1066   1.403       .  A
C1065      C1070   1.410       .  A
C1065      H1075   1.083       .  S
C1066      C1067   1.416       .  A
C1066      C1071   1.487       .  S
C1067      C1068   1.407       .  A
C1067      C1072   1.521       .  S
C1068      C1069   1.406       .  A
C1068      H1073   1.083       .  S
C1069      C1070   1.420       .  A
C1070      C1074   1.517       .  S
C1071      C1076   1.417       .  A
C1071      C1080   1.402       .  A
C1072      F1088   1.382       .  S
C1072      F1089   1.380       .  S
C1072      F1090   1.385       .  S
C1074      F1085   1.383       .  S
C1074      F1086   1.385       .  S
C1074      F1087   1.381       .  S
C1076      C1077   1.411       .  A
C1076      C1081   1.519       .  S
C1077      C1078   1.405       .  A
C1077      H1082   1.083       .  S
C1078      C1079   1.416       .  A
C1079      C1080   1.407       .  A
C1079      C1083   1.518       .  S
C1080      H1084   1.083       .  S
C1081      F1094   1.385       .  S
C1081      F1095   1.382       .  S
C1081      F1096   1.381       .  S
C1083      F1091   1.385       .  S
C1083      F1092   1.383       .  S
C1083      F1093   1.382       .  S
C1097      C1098   1.402       .  A
C1097      C1102   1.409       .  A
C1097      H1107   1.084       .  S
C1098      C1099   1.418       .  A
C1098      C1103   1.495       .  S
C1099      C1100   1.412       .  A
C1099      C1104   1.519       .  S
C1100      C1101   1.405       .  A
C1100      H1105   1.083       .  S
C1101      C1102   1.422       .  A
C1102      C1106   1.519       .  S
C1103      C1108   1.417       .  A
C1103      C1112   1.405       .  A
C1104      F1120   1.383       .  S
C1104      F1121   1.383       .  S
C1104      F1122   1.384       .  S
C1106      F1117   1.383       .  S
C1106      F1118   1.383       .  S
C1106      F1119   1.381       .  S
C1108      C1109   1.408       .  A
C1108      C1113   1.519       .  S
C1109      C1110   1.405       .  A
C1109      H1114   1.083       .  S
C1110      C1111   1.417       .  A
C1111      C1112   1.413       .  A
C1111      C1115   1.516       .  S
C1112      H1116   1.083       .  S
C1113      F1126   1.385       .  S
C1113      F1127   1.382       .  S
C1113      F1128   1.382       .  S
C1115      F1123   1.385       .  S
C1115      F1124   1.384       .  S
C1115      F1125   1.382       .  S
C1129      C1130   1.401       .  A
C1129      C1134   1.407       .  A
C1129      H1139   1.083       .  S
C1130      C1131   1.412       .  A
C1130      C1135   1.475       .  S
C1131      C1132   1.400       .  A
C1131      C1136   1.522       .  S
C1132      C1133   1.408       .  A
C1132      H1137   1.083       .  S
C1133      C1134   1.421       .  A
C1134      C1138   1.517       .  S
C1135      C1140   1.414       .  A
C1135      C1144   1.399       .  A
C1136      F1152   1.382       .  S
C1136      F1153   1.381       .  S
C1136      F1154   1.385       .  S
C1138      F1149   1.385       .  S
C1138      F1150   1.381       .  S
C1138      F1151   1.384       .  S
C1140      C1141   1.406       .  A
C1140      C1145   1.519       .  S
C1141      C1142   1.403       .  A
C1141      H1146   1.083       .  S
C1142      C1143   1.418       .  A
C1143      C1144   1.397       .  A
C1143      C1147   1.521       .  S
C1144      H1148   1.085       .  S
C1145      F1158   1.385       .  S
C1145      F1159   1.382       .  S
C1145      F1160   1.382       .  S
C1147      F1155   1.381       .  S
C1147      F1156   1.384       .  S
C1147      F1157   1.383       .  S
C1161      C1162   1.402       .  A
C1161      C1166   1.407       .  A
C1161      H1171   1.083       .  S
C1162      C1163   1.417       .  A
C1162      C1167   1.483       .  S
C1163      C1164   1.406       .  A
C1163      C1168   1.520       .  S
C1164      C1165   1.401       .  A
C1164      H1169   1.083       .  S
C1165      C1166   1.417       .  A
C1166      C1170   1.519       .  S
C1167      C1172   1.417       .  A
C1167      C1176   1.401       .  A
C1168      F1184   1.383       .  S
C1168      F1185   1.382       .  S
C1168      F1186   1.384       .  S
C1170      F1181   1.384       .  S
C1170      F1182   1.383       .  S
C1170      F1183   1.382       .  S
C1172      C1173   1.407       .  A
C1172      C1177   1.520       .  S
C1173      C1174   1.402       .  A
C1173      H1178   1.083       .  S
C1174      C1175   1.416       .  A
C1175      C1176   1.407       .  A
C1175      C1179   1.518       .  S
C1176      H1180   1.083       .  S
C1177      F1190   1.384       .  S
C1177      F1191   1.382       .  S
C1177      F1192   1.383       .  S
C1179      F1187   1.384       .  S
C1179      F1188   1.383       .  S
C1179      F1189   1.382       .  S
C1193      C1194   1.403       .  A
C1193      C1198   1.413       .  A
C1193      H1203   1.083       .  S
C1194      C1195   1.413       .  A
C1194      C1199   1.488       .  S
C1195      C1196   1.406       .  A
C1195      C1200   1.521       .  S
C1196      C1197   1.411       .  A
C1196      H1201   1.082       .  S
C1197      C1198   1.425       .  A
C1198      C1202   1.518       .  S
C1199      C1204   1.417       .  A
C1199      C1208   1.403       .  A
C1200      F1216   1.382       .  S
C1200      F1217   1.382       .  S
C1200      F1218   1.384       .  S
C1202      F1213   1.383       .  S
C1202      F1214   1.385       .  S
C1202      F1215   1.382       .  S
C1204      C1205   1.409       .  A
C1204      C1209   1.519       .  S
C1205      C1206   1.403       .  A
C1205      H1210   1.083       .  S
C1206      C1207   1.415       .  A
C1207      C1208   1.406       .  A
C1207      C1211   1.519       .  S
C1208      H1212   1.083       .  S
C1209      F1222   1.385       .  S
C1209      F1223   1.382       .  S
C1209      F1224   1.382       .  S
C1211      F1219   1.384       .  S
C1211      F1220   1.382       .  S
C1211      F1221   1.382       .  S
C1225      C1226   1.403       .  A
C1225      C1230   1.406       .  A
C1225      H1235   1.083       .  S
C1226      C1227   1.416       .  A
C1226      C1231   1.485       .  S
C1227      C1228   1.408       .  A
C1227      C1232   1.518       .  S
C1228      C1229   1.403       .  A
C1228      H1233   1.083       .  S
C1229      C1230   1.416       .  A
C1230      C1234   1.519       .  S
C1231      C1236   1.414       .  A
C1231      C1240   1.400       .  A
C1232      F1248   1.382       .  S
C1232      F1249   1.381       .  S
C1232      F1250   1.385       .  S
C1234      F1245   1.382       .  S
C1234      F1246   1.385       .  S
C1234      F1247   1.382       .  S
C1236      C1237   1.407       .  A
C1236      C1241   1.519       .  S
C1237      C1238   1.408       .  A
C1237      H1242   1.083       .  S
C1238      C1239   1.427       .  A
C1239      C1240   1.409       .  A
C1239      C1243   1.522       .  S
C1240      H1244   1.083       .  S
C1241      F1254   1.384       .  S
C1241      F1255   1.382       .  S
C1241      F1256   1.382       .  S
C1243      F1251   1.383       .  S
C1243      F1252   1.383       .  S
C1243      F1253   1.385       .  S
C1257      C1258   1.402       .  A
C1257      C1262   1.403       .  A
C1257      H1267   1.083       .  S
C1258      C1259   1.415       .  A
C1258      C1263   1.473       .  S
C1259      C1260   1.400       .  A
C1259      C1264   1.519       .  S
C1260      C1261   1.400       .  A
C1260      H1265   1.083       .  S
C1261      C1262   1.413       .  A
C1262      C1266   1.518       .  S
C1263      C1268   1.415       .  A
C1263      C1272   1.400       .  A
C1264      F1280   1.382       .  S
C1264      F1281   1.381       .  S
C1264      F1282   1.385       .  S
C1266      F1277   1.385       .  S
C1266      F1278   1.382       .  S
C1266      F1279   1.382       .  S
C1268      C1269   1.406       .  A
C1268      C1273   1.520       .  S
C1269      C1270   1.402       .  A
C1269      H1274   1.083       .  S
C1270      C1271   1.412       .  A
C1271      C1272   1.401       .  A
C1271      C1275   1.518       .  S
C1272      H1276   1.083       .  S
C1273      F1286   1.384       .  S
C1273      F1287   1.382       .  S
C1273      F1288   1.382       .  S
C1275      F1283   1.384       .  S
C1275      F1284   1.383       .  S
C1275      F1285   1.383       .  S
C1289      C1290   1.403       .  A
C1289      C1294   1.405       .  A
C1289      H1299   1.083       .  S
C1290      C1291   1.421       .  A
C1290      C1295   1.486       .  S
C1291      C1292   1.406       .  A
C1291      C1296   1.519       .  S
C1292      C1293   1.401       .  A
C1292      H1297   1.085       .  S
C1293      C1294   1.416       .  A
C1294      C1298   1.519       .  S
C1295      C1300   1.414       .  A
C1295      C1304   1.402       .  A
C1296      F1312   1.383       .  S
C1296      F1313   1.382       .  S
C1296      F1314   1.384       .  S
C1298      F1309   1.385       .  S
C1298      F1310   1.382       .  S
C1298      F1311   1.383       .  S
C1300      C1301   1.405       .  A
C1300      C1305   1.520       .  S
C1301      C1302   1.409       .  A
C1301      H1306   1.082       .  S
C1302      C1303   1.427       .  A
C1303      C1304   1.410       .  A
C1303      C1307   1.521       .  S
C1304      H1308   1.083       .  S
C1305      F1318   1.384       .  S
C1305      F1319   1.382       .  S
C1305      F1320   1.383       .  S
C1307      F1315   1.383       .  S
C1307      F1316   1.383       .  S
C1307      F1317   1.385       .  S
C1321      C1322   1.402       .  A
C1321      C1326   1.399       .  A
C1321      H1331   1.084       .  S
C1322      C1323   1.412       .  A
C1322      C1327   1.466       .  S
C1323      C1324   1.401       .  A
C1323      C1328   1.520       .  S
C1324      C1325   1.403       .  A
C1324      H1329   1.084       .  S
C1325      C1326   1.409       .  A
C1326      C1330   1.517       .  S
C1327      C1332   1.414       .  A
C1327      C1336   1.401       .  A
C1328      F1344   1.382       .  S
C1328      F1345   1.382       .  S
C1328      F1346   1.384       .  S
C1330      F1341   1.384       .  S
C1330      F1342   1.383       .  S
C1330      F1343   1.383       .  S
C1332      C1333   1.401       .  A
C1332      C1337   1.520       .  S
C1333      C1334   1.400       .  A
C1333      H1338   1.084       .  S
C1334      C1335   1.410       .  A
C1335      C1336   1.397       .  A
C1335      C1339   1.519       .  S
C1336      H1340   1.084       .  S
C1337      F1350   1.385       .  S
C1337      F1351   1.382       .  S
C1337      F1352   1.382       .  S
C1339      F1347   1.383       .  S
C1339      F1348   1.383       .  S
C1339      F1349   1.384       .  S
C1353      C1354   1.397       .  A
C1353      C1358   1.397       .  A
C1353      H1363   1.085       .  S
C1354      C1355   1.415       .  A
C1354      C1359   1.463       .  S
C1355      C1356   1.397       .  A
C1355      C1360   1.520       .  S
C1356      C1357   1.399       .  A
C1356      H1361   1.084       .  S
C1357      C1358   1.417       .  A
C1358      C1362   1.519       .  S
C1359      C1364   1.413       .  A
C1359      C1368   1.402       .  A
C1360      F1376   1.382       .  S
C1360      F1377   1.383       .  S
C1360      F1378   1.385       .  S
C1362      F1373   1.384       .  S
C1362      F1374   1.383       .  S
C1362      F1375   1.381       .  S
C1364      C1365   1.393       .  A
C1364      C1369   1.521       .  S
C1365      C1366   1.397       .  A
C1365      H1370   1.084       .  S
C1366      C1367   1.411       .  A
C1367      C1368   1.403       .  A
C1367      C1371   1.516       .  S
C1368      H1372   1.083       .  S
C1369      F1382   1.385       .  S
C1369      F1383   1.383       .  S
C1369      F1384   1.382       .  S
C1371      F1379   1.383       .  S
C1371      F1380   1.381       .  S
C1371      F1381   1.384       .  S
C1385      C1386   1.402       .  A
C1385      C1390   1.408       .  A
C1385      H1395   1.083       .  S
C1386      C1387   1.415       .  A
C1386      C1391   1.482       .  S
C1387      C1388   1.405       .  A
C1387      C1392   1.521       .  S
C1388      C1389   1.404       .  A
C1388      H1393   1.083       .  S
C1389      C1390   1.417       .  A
C1390      C1394   1.518       .  S
C1391      C1396   1.413       .  A
C1391      C1400   1.400       .  A
C1392      F1408   1.382       .  S
C1392      F1409   1.382       .  S
C1392      F1410   1.384       .  S
C1394      F1405   1.381       .  S
C1394      F1406   1.384       .  S
C1394      F1407   1.383       .  S
C1396      C1397   1.407       .  A
C1396      C1401   1.519       .  S
C1397      C1398   1.406       .  A
C1397      H1402   1.083       .  S
C1398      C1399   1.421       .  A
C1399      C1400   1.406       .  A
C1399      C1403   1.519       .  S
C1400      H1404   1.083       .  S
C1401      F1414   1.384       .  S
C1401      F1415   1.382       .  S
C1401      F1416   1.382       .  S
C1403      F1411   1.382       .  S
C1403      F1412   1.382       .  S
C1403      F1413   1.385       .  S
C1417      C1418   1.400       .  A
C1417      C1422   1.399       .  A
C1417      H1427   1.084       .  S
C1418      C1419   1.416       .  A
C1418      C1423   1.471       .  S
C1419      C1420   1.405       .  A
C1419      C1424   1.519       .  S
C1420      C1421   1.400       .  A
C1420      H1425   1.083       .  S
C1421      C1422   1.413       .  A
C1422      C1426   1.518       .  S
C1423      C1428   1.415       .  A
C1423      C1432   1.399       .  A
C1424      F1440   1.382       .  S
C1424      F1441   1.382       .  S
C1424      F1442   1.384       .  S
C1426      F1437   1.382       .  S
C1426      F1438   1.385       .  S
C1426      F1439   1.383       .  S
C1428      C1429   1.405       .  A
C1428      C1433   1.519       .  S
C1429      C1430   1.401       .  A
C1429      H1434   1.083       .  S
C1430      C1431   1.416       .  A
C1431      C1432   1.398       .  A
C1431      C1435   1.522       .  S
C1432      H1436   1.083       .  S
C1433      F1446   1.384       .  S
C1433      F1447   1.382       .  S
C1433      F1448   1.382       .  S
C1435      F1443   1.382       .  S
C1435      F1444   1.383       .  S
C1435      F1445   1.384       .  S
C1449      C1450   1.398       .  A
C1449      C1454   1.401       .  A
C1449      H1459   1.084       .  S
C1450      C1451   1.413       .  A
C1450      C1455   1.469       .  S
C1451      C1452   1.402       .  A
C1451      C1456   1.519       .  S
C1452      C1453   1.402       .  A
C1452      H1457   1.082       .  S
C1453      C1454   1.417       .  A
C1454      C1458   1.519       .  S
C1455      C1460   1.415       .  A
C1455      C1464   1.398       .  A
C1456      F1472   1.382       .  S
C1456      F1473   1.382       .  S
C1456      F1474   1.385       .  S
C1458      F1469   1.385       .  S
C1458      F1470   1.383       .  S
C1458      F1471   1.382       .  S
C1460      C1461   1.400       .  A
C1460      C1465   1.521       .  S
C1461      C1462   1.402       .  A
C1461      H1466   1.083       .  S
C1462      C1463   1.419       .  A
C1463      C1464   1.400       .  A
C1463      C1467   1.517       .  S
C1464      H1468   1.085       .  S
C1465      F1478   1.385       .  S
C1465      F1479   1.382       .  S
C1465      F1480   1.382       .  S
C1467      F1475   1.384       .  S
C1467      F1476   1.382       .  S
C1467      F1477   1.383       .  S
C1481      C1482   1.397       .  A
C1481      C1486   1.399       .  A
C1481      H1491   1.083       .  S
C1482      C1483   1.413       .  A
C1482      C1487   1.464       .  S
C1483      C1484   1.399       .  A
C1483      C1488   1.521       .  S
C1484      C1485   1.400       .  A
C1484      H1489   1.083       .  S
C1485      C1486   1.417       .  A
C1486      C1490   1.521       .  S
C1487      C1492   1.413       .  A
C1487      C1496   1.396       .  A
C1488      F1504   1.382       .  S
C1488      F1505   1.382       .  S
C1488      F1506   1.384       .  S
C1490      F1501   1.385       .  S
C1490      F1502   1.381   1_565  S
C1490      F1503   1.382       .  S
C1492      C1493   1.399       .  A
C1492      C1497   1.521       .  S
C1493      C1494   1.403       .  A
C1493      H1498   1.083       .  S
C1494      C1495   1.419       .  A
C1495      C1496   1.399       .  A
C1495      C1499   1.516       .  S
C1496      H1500   1.084       .  S
C1497      F1510   1.385       .  S
C1497      F1511   1.382       .  S
C1497      F1512   1.382       .  S
C1499      F1507   1.385       .  S
C1499      F1508   1.383       .  S
C1499      F1509   1.382       .  S
C1513      C1514   1.402       .  A
C1513      C1518   1.404       .  A
C1513      H1523   1.083       .  S
C1514      C1515   1.417       .  A
C1514      C1519   1.486       .  S
C1515      C1516   1.409       .  A
C1515      C1520   1.519       .  S
C1516      C1517   1.403       .  A
C1516      H1521   1.083       .  S
C1517      C1518   1.416       .  A
C1518      C1522   1.519       .  S
C1519      C1524   1.415       .  A
C1519      C1528   1.398       .  A
C1520      F1536   1.382       .  S
C1520      F1537   1.382       .  S
C1520      F1538   1.385       .  S
C1522      F1533   1.383       .  S
C1522      F1534   1.384       .  S
C1522      F1535   1.380       .  S
C1524      C1525   1.408       .  A
C1524      C1529   1.520       .  S
C1525      C1526   1.408       .  A
C1525      H1530   1.083       .  S
C1526      C1527   1.427       .  A
C1527      C1528   1.408       .  A
C1527      C1531   1.521       .  S
C1528      H1532   1.083       .  S
C1529      F1542   1.384       .  S
C1529      F1543   1.382       .  S
C1529      F1544   1.383       .  S
C1531      F1539   1.385       .  S
C1531      F1540   1.382       .  S
C1531      F1541   1.383       .  S
C1545      C1546   1.402       .  A
C1545      C1550   1.407       .  A
C1545      H1555   1.083       .  S
C1546      C1547   1.418       .  A
C1546      C1551   1.492       .  S
C1547      C1548   1.413       .  A
C1547      C1552   1.519       .  S
C1548      C1549   1.405       .  A
C1548      H1553   1.083       .  S
C1549      C1550   1.416       .  A
C1550      C1554   1.519       .  S
C1551      C1556   1.416       .  A
C1551      C1560   1.405       .  A
C1552      F1568   1.382       .  S
C1552      F1569   1.382       .  S
C1552      F1570   1.384       .  S
C1554      F1565   1.383       .  S
C1554      F1566   1.384       .  S
C1554      F1567   1.382       .  S
C1556      C1557   1.407       .  A
C1556      C1561   1.521       .  S
C1557      C1558   1.406       .  A
C1557      H1562   1.083       .  S
C1558      C1559   1.419       .  A
C1559      C1560   1.414       .  A
C1559      C1563   1.516       .  S
C1560      H1564   1.083       .  S
C1561      F1574   1.385       .  S
C1561      F1575   1.382       .  S
C1561      F1576   1.382       .  S
C1563      F1571   1.385       .  S
C1563      F1572   1.382       .  S
C1563      F1573   1.383       .  S
C1577      C1578   1.400       .  A
C1577      C1582   1.402       .  A
C1577      H1587   1.085       .  S
C1578      C1579   1.414       .  A
C1578      C1583   1.473       .  S
C1579      C1580   1.401       .  A
C1579      C1584   1.522       .  S
C1580      C1581   1.402       .  A
C1580      H1585   1.083       .  S
C1581      C1582   1.418       .  A
C1582      C1586   1.519       .  S
C1583      C1588   1.413       .  A
C1583      C1592   1.399       .  A
C1584      F1600   1.382       .  S
C1584      F1601   1.382       .  S
C1584      F1602   1.384       .  S
C1586      F1597   1.384       .  S
C1586      F1598   1.383       .  S
C1586      F1599   1.381       .  S
C1588      C1589   1.403       .  A
C1588      C1593   1.521       .  S
C1589      C1590   1.405       .  A
C1589      H1594   1.083       .  S
C1590      C1591   1.420       .  A
C1591      C1592   1.404       .  A
C1591      C1595   1.518       .  S
C1592      H1596   1.083       .  S
C1593      F1606   1.384       .  S
C1593      F1607   1.382       .  S
C1593      F1608   1.383       .  S
C1595      F1603   1.383       .  S
C1595      F1604   1.382       .  S
C1595      F1605   1.385       .  S
C1609      C1610   1.401       .  A
C1609      C1614   1.408       .  A
C1609      H1619   1.083       .  S
C1610      C1611   1.413       .  A
C1610      C1615   1.479       .  S
C1611      C1612   1.403       .  A
C1611      C1616   1.521       .  S
C1612      C1613   1.405       .  A
C1612      H1617   1.083       .  S
C1613      C1614   1.421       .  A
C1614      C1618   1.519       .  S
C1615      C1620   1.414       .  A
C1615      C1624   1.403       .  A
C1616      F1632   1.382       .  S
C1616      F1633   1.382       .  S
C1616      F1634   1.384       .  S
C1618      F1629   1.383       .  S
C1618      F1630   1.385       .  S
C1618      F1631   1.383       .  S
C1620      C1621   1.402       .  A
C1620      C1625   1.519       .  S
C1621      C1622   1.401       .  A
C1621      H1626   1.083       .  S
C1622      C1623   1.419       .  A
C1623      C1624   1.405       .  A
C1623      C1627   1.520       .  S
C1624      H1628   1.085       .  S
C1625      F1638   1.384       .  S
C1625      F1639   1.383       .  S
C1625      F1640   1.382       .  S
C1627      F1635   1.384       .  S
C1627      F1636   1.382       .  S
C1627      F1637   1.383       .  S
C1641      C1642   1.402       .  A
C1641      C1646   1.402       .  A
C1641      H1651   1.083       .  S
C1642      C1643   1.416       .  A
C1642      C1647   1.475       .  S
C1643      C1644   1.401       .  A
C1643      C1648   1.518       .  S
C1644      C1645   1.398       .  A
C1644      H1649   1.084       .  S
C1645      C1646   1.412       .  A
C1646      C1650   1.518       .  S
C1647      C1652   1.415       .  A
C1647      C1656   1.400       .  A
C1648      F1664   1.382       .  S
C1648      F1665   1.382       .  S
C1648      F1666   1.385       .  S
C1650      F1661   1.385       .  S
C1650      F1662   1.382       .  S
C1650      F1663   1.384       .  S
C1652      C1653   1.404       .  A
C1652      C1657   1.520       .  S
C1653      C1654   1.401       .  A
C1653      H1658   1.083       .  S
C1654      C1655   1.416       .  A
C1655      C1656   1.403       .  A
C1655      C1659   1.518       .  S
C1656      H1660   1.083       .  S
C1657      F1670   1.384       .  S
C1657      F1671   1.382       .  S
C1657      F1672   1.383       .  S
C1659      F1667   1.385       .  S
C1659      F1668   1.382       .  S
C1659      F1669   1.381       .  S
C1673      C1674   1.398       .  A
C1673      C1678   1.408       .  A
C1673      H1683   1.083       .  S
C1674      C1675   1.414       .  A
C1674      C1679   1.488       .  S
C1675      C1676   1.410       .  A
C1675      C1680   1.521       .  S
C1676      C1677   1.413       .  A
C1676      H1681   1.082       .  S
C1677      C1678   1.428       .  A
C1678      C1682   1.518       .  S
C1679      C1684   1.417       .  A
C1679      C1688   1.404       .  A
C1680      F1696   1.382       .  S
C1680      F1697   1.383       .  S
C1680      F1698   1.384       .  S
C1682      F1693   1.382       .  S
C1682      F1694   1.385       .  S
C1682      F1695   1.383       .  S
C1684      C1685   1.408       .  A
C1684      C1689   1.519       .  S
C1685      C1686   1.403       .  A
C1685      H1690   1.083       .  S
C1686      C1687   1.416       .  A
C1687      C1688   1.407       .  A
C1687      C1691   1.520       .  S
C1688      H1692   1.083       .  S
C1689      F1702   1.384       .  S
C1689      F1703   1.382       .  S
C1689      F1704   1.382       .  S
C1691      F1699   1.381       .  S
C1691      F1700   1.383       .  S
C1691      F1701   1.384       .  S
C1705      C1706   1.401       .  A
C1705      C1710   1.407       .  A
C1705      H1715   1.083       .  S
C1706      C1707   1.415       .  A
C1706      C1711   1.478       .  S
C1707      C1708   1.404       .  A
C1707      C1712   1.521       .  S
C1708      C1709   1.402       .  A
C1708      H1713   1.083       .  S
C1709      C1710   1.419       .  A
C1710      C1714   1.520       .  S
C1711      C1716   1.414       .  A
C1711      C1720   1.401       .  A
C1712      F1728   1.382       .  S
C1712      F1729   1.381       .  S
C1712      F1730   1.384       .  S
C1714      F1725   1.380       .  S
C1714      F1726   1.385       .  S
C1714      F1727   1.382       .  S
C1716      C1717   1.406       .  A
C1716      C1721   1.520       .  S
C1717      C1718   1.405       .  A
C1717      H1722   1.083       .  S
C1718      C1719   1.417       .  A
C1719      C1720   1.404       .  A
C1719      C1723   1.520       .  S
C1720      H1724   1.083       .  S
C1721      F1734   1.385       .  S
C1721      F1735   1.382       .  S
C1721      F1736   1.382       .  S
C1723      F1731   1.383       .  S
C1723      F1732   1.384       .  S
C1723      F1733   1.384       .  S
C1737      C1738   1.404       .  A
C1737      C1742   1.410       .  A
C1737      H1747   1.083       .  S
C1738      C1739   1.419       .  A
C1738      C1743   1.494       .  S
C1739      C1740   1.410       .  A
C1739      C1744   1.518       .  S
C1740      C1741   1.403       .  A
C1740      H1745   1.083       .  S
C1741      C1742   1.416       .  A
C1742      C1746   1.518       .  S
C1743      C1748   1.415       .  A
C1743      C1752   1.401       .  A
C1744      F1760   1.382       .  S
C1744      F1761   1.383       .  S
C1744      F1762   1.384       .  S
C1746      F1757   1.384       .  S
C1746      F1758   1.382       .  S
C1746      F1759   1.383       .  S
C1748      C1749   1.409       .  A
C1748      C1753   1.519       .  S
C1749      C1750   1.410       .  A
C1749      H1754   1.082       .  S
C1750      C1751   1.429       .  A
C1751      C1752   1.411       .  A
C1751      C1755   1.521       .  S
C1752      H1756   1.083       .  S
C1753      F1766   1.385       .  S
C1753      F1767   1.382       .  S
C1753      F1768   1.382       .  S
C1755      F1763   1.385       .  S
C1755      F1764   1.383       .  S
C1755      F1765   1.383       .  S
C1769      C1770   1.402       .  A
C1769      C1774   1.405       .  A
C1769      H1779   1.085       .  S
C1770      C1771   1.415       .  A
C1770      C1775   1.483       .  S
C1771      C1772   1.405       .  A
C1771      C1776   1.520       .  S
C1772      C1773   1.404       .  A
C1772      H1777   1.083       .  S
C1773      C1774   1.418       .  A
C1774      C1778   1.519       .  S
C1775      C1780   1.414       .  A
C1775      C1784   1.399       .  A
C1776      F1792   1.382       .  S
C1776      F1793   1.382       .  S
C1776      F1794   1.384       .  S
C1778      F1789   1.384       .  S
C1778      F1790   1.383       .  S
C1778      F1791   1.381       .  S
C1780      C1781   1.406       .  A
C1780      C1785   1.520       .  S
C1781      C1782   1.407       .  A
C1781      H1786   1.083       .  S
C1782      C1783   1.426       .  A
C1783      C1784   1.407       .  A
C1783      C1787   1.521       .  S
C1784      H1788   1.083       .  S
C1785      F1798   1.385       .  S
C1785      F1799   1.382       .  S
C1785      F1800   1.382       .  S
C1787      F1795   1.383       .  S
C1787      F1796   1.383       .  S
C1787      F1797   1.385       .  S
C1801      C1802   1.402       .  A
C1801      C1806   1.403       .  A
C1801      H1811   1.083       .  S
C1802      C1803   1.415       .  A
C1802      C1807   1.482       .  S
C1803      C1804   1.407       .  A
C1803      C1808   1.518       .  S
C1804      C1805   1.403       .  A
C1804      H1809   1.083       .  S
C1805      C1806   1.415       .  A
C1806      C1810   1.519       .  S
C1807      C1812   1.416       .  A
C1807      C1816   1.402       .  A
C1808      F1824   1.382       .  S
C1808      F1825   1.383       .  S
C1808      F1826   1.385       .  S
C1810      F1821   1.383       .  S
C1810      F1822   1.385       .  S
C1810      F1823   1.381       .  S
C1812      C1813   1.404       .  A
C1812      C1817   1.521       .  S
C1813      C1814   1.405       .  A
C1813      H1818   1.083       .  S
C1814      C1815   1.417       .  A
C1815      C1816   1.407       .  A
C1815      C1819   1.517       .  S
C1816      H1820   1.083       .  S
C1817      F1830   1.385       .  S
C1817      F1831   1.382       .  S
C1817      F1832   1.382       .  S
C1819      F1827   1.385       .  S
C1819      F1828   1.380       .  S
C1819      F1829   1.384       .  S
C1833      C1834   1.402       .  A
C1833      C1838   1.409       .  A
C1833      H1843   1.083       .  S
C1834      C1835   1.417       .  A
C1834      C1839   1.489       .  S
C1835      C1836   1.408       .  A
C1835      C1840   1.519       .  S
C1836      C1837   1.404       .  A
C1836      H1841   1.083       .  S
C1837      C1838   1.419       .  A
C1838      C1842   1.518       .  S
C1839      C1844   1.418       .  A
C1839      C1848   1.403       .  A
C1840      F1856   1.382       .  S
C1840      F1857   1.382       .  S
C1840      F1858   1.385       .  S
C1842      F1853   1.383       .  S
C1842      F1854   1.385       .  S
C1842      F1855   1.383       .  S
C1844      C1845   1.409       .  A
C1844      C1849   1.519       .  S
C1845      C1846   1.403       .  A
C1845      H1850   1.083       .  S
C1846      C1847   1.415       .  A
C1847      C1848   1.407       .  A
C1847      C1851   1.518       .  S
C1848      H1852   1.083       .  S
C1849      F1862   1.385       .  S
C1849      F1863   1.382       .  S
C1849      F1864   1.383       .  S
C1851      F1859   1.382   1_554  S
C1851      F1860   1.383       .  S
C1851      F1861   1.384       .  S
C1865      C1866   1.402       .  A
C1865      C1870   1.401       .  A
C1865      H1875   1.084       .  S
C1866      C1867   1.412       .  A
C1866      C1871   1.472       .  S
C1867      C1868   1.402       .  A
C1867      C1872   1.519       .  S
C1868      C1869   1.404       .  A
C1868      H1873   1.084       .  S
C1869      C1870   1.414       .  A
C1870      C1874   1.518       .  S
C1871      C1876   1.417       .  A
C1871      C1880   1.400       .  A
C1872      F1888   1.382       .  S
C1872      F1889   1.382       .  S
C1872      F1890   1.385       .  S
C1874      F1885   1.385       .  S
C1874      F1886   1.383       .  S
C1874      F1887   1.382       .  S
C1876      C1877   1.401       .  A
C1876      C1881   1.519       .  S
C1877      C1878   1.398       .  A
C1877      H1882   1.083       .  S
C1878      C1879   1.415       .  A
C1879      C1880   1.401       .  A
C1879      C1883   1.519       .  S
C1880      H1884   1.083       .  S
C1881      F1894   1.385       .  S
C1881      F1895   1.382       .  S
C1881      F1896   1.382       .  S
C1883      F1891   1.383       .  S
C1883      F1892   1.382       .  S
C1883      F1893   1.384       .  S
C1897      C1898   1.402       .  A
C1897      C1902   1.405       .  A
C1897      H1907   1.083       .  S
C1898      C1899   1.416       .  A
C1898      C1903   1.476       .  S
C1899      C1900   1.402       .  A
C1899      C1904   1.521       .  S
C1900      C1901   1.401       .  A
C1900      H1905   1.083       .  S
C1901      C1902   1.413       .  A
C1902      C1906   1.517       .  S
C1903      C1908   1.412       .  A
C1903      C1912   1.396       .  A
C1904      F1920   1.382       .  S
C1904      F1921   1.382       .  S
C1904      F1922   1.385       .  S
C1906      F1917   1.384       .  S
C1906      F1918   1.382       .  S
C1906      F1919   1.382       .  S
C1908      C1909   1.407       .  A
C1908      C1913   1.519       .  S
C1909      C1910   1.408       .  A
C1909      H1914   1.083       .  S
C1910      C1911   1.424       .  A
C1911      C1912   1.404       .  A
C1911      C1915   1.517       .  S
C1912      H1916   1.083       .  S
C1913      F1926   1.384       .  S
C1913      F1927   1.383       .  S
C1913      F1928   1.382       .  S
C1915      F1923   1.385       .  S
C1915      F1924   1.382       .  S
C1915      F1925   1.379       .  S
C1929      C1930   1.401       .  A
C1929      C1934   1.406       .  A
C1929      H1939   1.083       .  S
C1930      C1931   1.416       .  A
C1930      C1935   1.480       .  S
C1931      C1932   1.404       .  A
C1931      C1936   1.520       .  S
C1932      C1933   1.402       .  A
C1932      H1937   1.084       .  S
C1933      C1934   1.417       .  A
C1934      C1938   1.519       .  S
C1935      C1940   1.415       .  A
C1935      C1944   1.400       .  A
C1936      F1952   1.382       .  S
C1936      F1953   1.383       .  S
C1936      F1954   1.385       .  S
C1938      F1949   1.384       .  S
C1938      F1950   1.385       .  S
C1938      F1951   1.382       .  S
C1940      C1941   1.405       .  A
C1940      C1945   1.519       .  S
C1941      C1942   1.403       .  A
C1941      H1946   1.083       .  S
C1942      C1943   1.419       .  A
C1943      C1944   1.403       .  A
C1943      C1947   1.518       .  S
C1944      H1948   1.085       .  S
C1945      F1958   1.385       .  S
C1945      F1959   1.382       .  S
C1945      F1960   1.382       .  S
C1947      F1955   1.384       .  S
C1947      F1956   1.381       .  S
C1947      F1957   1.383       .  S
C1961      C1962   1.399       .  A
C1961      C1966   1.405       .  A
C1961      H1971   1.083       .  S
C1962      C1963   1.411       .  A
C1962      C1967   1.473       .  S
C1963      C1964   1.402       .  A
C1963      C1968   1.521       .  S
C1964      C1965   1.407       .  A
C1964      H1969   1.083       .  S
C1965      C1966   1.421       .  A
C1966      C1970   1.519       .  S
C1967      C1972   1.416       .  A
C1967      C1976   1.402       .  A
C1968      F1984   1.383       .  S
C1968      F1985   1.382       .  S
C1968      F1986   1.384       .  S
C1970      F1981   1.383       .  S
C1970      F1982   1.385       .  S
C1970      F1983   1.382       .  S
C1972      C1973   1.399       .  A
C1972      C1977   1.521       .  S
C1973      C1974   1.399       .  A
C1973      H1978   1.083       .  S
C1974      C1975   1.414       .  A
C1975      C1976   1.406       .  A
C1975      C1979   1.517       .  S
C1976      H1980   1.083       .  S
C1977      F1990   1.384       .  S
C1977      F1991   1.383       .  S
C1977      F1992   1.381       .  S
C1979      F1987   1.384       .  S
C1979      F1988   1.384       .  S
C1979      F1989   1.382       .  S
C1993      C1994   1.396       .  A
C1993      C1998   1.395       .  A
C1993      H2003   1.085       .  S
C1994      C1995   1.414       .  A
C1994      C1999   1.469       .  S
C1995      C1996   1.404       .  A
C1995      C2000   1.518       .  S
C1996      C1997   1.401       .  A
C1996      H2001   1.083       .  S
C1997      C1998   1.420       .  A
C1998      C2002   1.523       .  S
C1999      C2004   1.414       .  A
C1999      C2008   1.398       .  A
C2000      F2016   1.382       .  S
C2000      F2017   1.381       .  S
C2000      F2018   1.385       .  S
C2002      F2013   1.383       .  S
C2002      F2014   1.383       .  S
C2002      F2015   1.380       .  S
C2004      C2005   1.403       .  A
C2004      C2009   1.521       .  S
C2005      C2006   1.402       .  A
C2005      H2010   1.081       .  S
C2006      C2007   1.418       .  A
C2007      C2008   1.401       .  A
C2007      C2011   1.519       .  S
C2008      H2012   1.083       .  S
C2009      F2022   1.385       .  S
C2009      F2023   1.383       .  S
C2009      F2024   1.381       .  S
C2011      F2019   1.383       .  S
C2011      F2020   1.383       .  S
C2011      F2021   1.385       .  S
C2025      C2026   1.403       .  A
C2025      C2030   1.403       .  A
C2025      H2035   1.084       .  S
C2026      C2027   1.421       .  A
C2026      C2031   1.482       .  S
C2027      C2028   1.402       .  A
C2027      C2032   1.519       .  S
C2028      C2029   1.400       .  A
C2028      H2033   1.085       .  S
C2029      C2030   1.417       .  A
C2030      C2034   1.518       .  S
C2031      C2036   1.414       .  A
C2031      C2040   1.402       .  A
C2032      F2048   1.383       .  S
C2032      F2049   1.379       .  S
C2032      F2050   1.384       .  S
C2034      F2045   1.383       .  S
C2034      F2046   1.382       .  S
C2034      F2047   1.384       .  S
C2036      C2037   1.404       .  A
C2036      C2041   1.519       .  S
C2037      C2038   1.405       .  A
C2037      H2042   1.083       .  S
C2038      C2039   1.421       .  A
C2039      C2040   1.407       .  A
C2039      C2043   1.519       .  S
C2040      H2044   1.083       .  S
C2041      F2054   1.384       .  S
C2041      F2055   1.382       .  S
C2041      F2056   1.383       .  S
C2043      F2051   1.382       .  S
C2043      F2052   1.382       .  S
C2043      F2053   1.384       .  S
C2057      C2058   1.402       .  A
C2057      C2062   1.404       .  A
C2057      H2067   1.083       .  S
C2058      C2059   1.416       .  A
C2058      C2063   1.477       .  S
C2059      C2060   1.404       .  A
C2059      C2064   1.519       .  S
C2060      C2061   1.401       .  A
C2060      H2065   1.083       .  S
C2061      C2062   1.415       .  A
C2062      C2066   1.520       .  S
C2063      C2068   1.414       .  A
C2063      C2072   1.399       .  A
C2064      F2080   1.382       .  S
C2064      F2081   1.382       .  S
C2064      F2082   1.384       .  S
C2066      F2077   1.384       .  S
C2066      F2078   1.383       .  S
C2066      F2079   1.382       .  S
C2068      C2069   1.408       .  A
C2068      C2073   1.519       .  S
C2069      C2070   1.405       .  A
C2069      H2074   1.083       .  S
C2070      C2071   1.419       .  A
C2071      C2072   1.402       .  A
C2071      C2075   1.520       .  S
C2072      H2076   1.084       .  S
C2073      F2086   1.384       .  S
C2073      F2087   1.382       .  S
C2073      F2088   1.382       .  S
C2075      F2083   1.385       .  S
C2075      F2084   1.382       .  S
C2075      F2085   1.382       .  S
C2089      C2090   1.401       .  A
C2089      C2094   1.404       .  A
C2089      H2099   1.084       .  S
C2090      C2091   1.417       .  A
C2090      C2095   1.483       .  S
C2091      C2092   1.407       .  A
C2091      C2096   1.519       .  S
C2092      C2093   1.402       .  A
C2092      H2097   1.083       .  S
C2093      C2094   1.418       .  A
C2094      C2098   1.522       .  S
C2095      C2100   1.414       .  A
C2095      C2104   1.402       .  A
C2096      F2112   1.382       .  S
C2096      F2113   1.383       .  S
C2096      F2114   1.385       .  S
C2098      F2109   1.384       .  S
C2098      F2110   1.382       .  S
C2098      F2111   1.382       .  S
C2100      C2101   1.405       .  A
C2100      C2105   1.521       .  S
C2101      C2102   1.408       .  A
C2101      H2106   1.083       .  S
C2102      C2103   1.420       .  A
C2103      C2104   1.408       .  A
C2103      C2107   1.519       .  S
C2104      H2108   1.083       .  S
C2105      F2118   1.385       .  S
C2105      F2119   1.382       .  S
C2105      F2120   1.382       .  S
C2107      F2115   1.385       .  S
C2107      F2116   1.384       .  S
C2107      F2117   1.383       .  S
C2121      C2122   1.400       .  A
C2121      C2126   1.401       .  A
C2121      H2131   1.083       .  S
C2122      C2123   1.416       .  A
C2122      C2127   1.472       .  S
C2123      C2124   1.405       .  A
C2123      C2128   1.521       .  S
C2124      C2125   1.402       .  A
C2124      H2129   1.083       .  S
C2125      C2126   1.415       .  A
C2126      C2130   1.519       .  S
C2127      C2132   1.410       .  A
C2127      C2136   1.398       .  A
C2128      F2144   1.382       .  S
C2128      F2145   1.381       .  S
C2128      F2146   1.384       .  S
C2130      F2141   1.382       .  S
C2130      F2142   1.385       .  S
C2130      F2143   1.382       .  S
C2132      C2133   1.403       .  A
C2132      C2137   1.520       .  S
C2133      C2134   1.410       .  A
C2133      H2138   1.082       .  S
C2134      C2135   1.424       .  A
C2135      C2136   1.402       .  A
C2135      C2139   1.521       .  S
C2136      H2140   1.084       .  S
C2137      F2150   1.385       .  S
C2137      F2151   1.383       .  S
C2137      F2152   1.380       .  S
C2139      F2147   1.385       .  S
C2139      F2148   1.384       .  S
C2139      F2149   1.381       .  S
