geometry optimzed in LAMMPS
_audit_creation_date              2020-12-01 
_audit_creation_method            'lammps2cif' 
_symmetry_space_group_name_H-M    'P1' 
_symmetry_Int_Tables_number       1 
_symmetry_cell_setting            triclinic 
loop_ 
_symmetry_equiv_pos_as_xyz 
  x,y,z 
_cell_length_a                    30.6838249 
_cell_length_b                    30.300243178007264 
_cell_length_c                    30.824643371264823 
_cell_angle_alpha                 89.9874575185331 
_cell_angle_beta                  90.03097415157505 
_cell_angle_gamma                 89.2530031907856 
loop_ 
_atom_site_label 
_atom_site_type_symbol 
_atom_site_fract_x 
_atom_site_fract_y 
_atom_site_fract_z 
_atom_site_charge 
O1          O  0.08110495  0.68988232  0.19481236    -0.82000
C2          C  0.16198905  0.56920103  0.31192078     0.97400
O3          O  0.12810228  0.56392472  0.28973064    -0.71100
O4          O  0.07159073  0.62645132  0.30559513    -0.74700
Al5        Al  0.09427764  0.60256950  0.25449816     1.49000
C6          C  0.05525893  0.66454741  0.30956995     0.92600
O7          O  0.14663822  0.71904023  0.29652754    -0.80900
O8          O  0.20004887  0.66063577  0.19709201    -0.74500
Al9        Al  0.11473095  0.70146658  0.24596181     1.90100
O10         O  0.20662398  0.68138305  0.28308259    -0.73600
O11         O  0.18417451  0.57841002  0.21669155    -0.73400
O12         O  0.18704467  0.60079684  0.30426489    -0.79100
O13         O  0.11376106  0.57431145  0.20399716    -0.77300
O14         O  0.13310795  0.64529119  0.25005691    -1.13400
O15         O  0.05065744  0.63032210  0.21992562    -0.72600
C16         C  0.05256772  0.66033069  0.19177202     0.98100
C17         C  0.18629163  0.71047225  0.30462376     0.94500
Al18       Al  0.18970252  0.63159552  0.25019893     1.55600
O19         O  0.06471075  0.69507697  0.28337113    -0.77200
C20         C  0.15233992  0.56171436  0.19678350     0.98700
C21         C  0.18974416  0.69976349  0.18735289     0.93600
O22         O  0.16020445  0.72014738  0.20796951    -0.82500
O23         O  0.39739104  0.79917141  0.44519921    -0.82000
C24         C  0.32370585  0.93470786  0.05784330     0.97400
O25         O  0.35641277  0.93763074  0.03344890    -0.71100
O26         O  0.40858493  0.87220249  0.05590888    -0.74700
Al27       Al  0.39050304  0.89064078  0.49758199     1.49000
C28         C  0.42160862  0.83327735  0.06331270     0.92600
O29         O  0.32879573  0.78183408  0.04915945    -0.80900
O30         O  0.27877965  0.83635303  0.44840995    -0.74500
Al31       Al  0.36197240  0.79581684  0.99936327     1.90100
O32         O  0.27121645  0.82332420  0.03674798    -0.73600
O33         O  0.30192817  0.91806934  0.46162532    -0.73400
O34         O  0.29755534  0.90338415  0.05326690    -0.79100
O35         O  0.37140241  0.91271512  0.44410506    -0.77300
O36         O  0.34901893  0.85030745  0.49787764    -1.13400
O37         O  0.43347498  0.85684198  0.46655027    -0.72600
C38         C  0.42941484  0.82441464  0.44143876     0.98100
C39         C  0.28981635  0.79238283  0.05739517     0.94500
Al40       Al  0.29353424  0.86788690  0.49908543     1.55600
O41         O  0.41112536  0.80171403  0.03847832    -0.77200
C42         C  0.33352419  0.92769443  0.43702094     0.98700
C43         C  0.28717450  0.79656045  0.43951355     0.93600
O44         O  0.31671425  0.77572486  0.45994773    -0.82500
O45         O  0.89625706  0.68413811  0.04949104    -0.82000
C46         C  0.82338554  0.56068059  0.43520184     0.97400
O47         O  0.85885775  0.55757935  0.45549306    -0.71100
O48         O  0.91184439  0.62215964  0.44253830    -0.74700
Al49       Al  0.89021018  0.59612406  0.98891940     1.49000
C50         C  0.92524374  0.66103426  0.43995252     0.92600
O51         O  0.82761615  0.70883067  0.45215991    -0.80900
O52         O  0.78182684  0.64692643  0.05213423    -0.74500
Al53       Al  0.86067567  0.69376713  0.50169558     1.90100
O54         O  0.76978047  0.66927045  0.46627501    -0.73600
O55         O  0.80289759  0.56561494  0.02981844    -0.73400
O56         O  0.79500881  0.58918620  0.44533851    -0.79100
O57         O  0.87384062  0.56406420  0.03759577    -0.77300
O58         O  0.84770680  0.63606648  0.99543462    -1.13400
O59         O  0.93061277  0.62470246  0.02598375    -0.72600
C60         C  0.92705343  0.65633959  0.05239001     0.98100
C61         C  0.78827295  0.69963066  0.44527405     0.94500
Al62       Al  0.79202243  0.61912686  0.99782798     1.55600
O63         O  0.91075776  0.69098989  0.46458025    -0.77200
C64         C  0.83698843  0.54917383  0.04659795     0.98700
C65         C  0.78812786  0.68703246  0.06031706     0.93600
O66         O  0.81471085  0.70870156  0.03785185    -0.82500
O67         O  0.58679109  0.79754775  0.29991813    -0.82000
C68         C  0.66114674  0.92703799  0.18996481     0.97400
O69         O  0.62736613  0.93084726  0.21301253    -0.71100
O70         O  0.57185767  0.86876747  0.19488892    -0.74700
Al71       Al  0.59520086  0.88929646  0.24688735     1.49000
C72         C  0.55702023  0.83066137  0.18943306     0.92600
O73         O  0.65237321  0.77638069  0.19788167    -0.80900
O74         O  0.70330332  0.83015933  0.30021478    -0.74500
Al75       Al  0.62044216  0.79043326  0.24858302     1.90100
O76         O  0.71135262  0.81356765  0.21294243    -0.73600
O77         O  0.68467568  0.91328300  0.28409647    -0.73400
O78         O  0.68735137  0.89517303  0.19584235    -0.79100
O79         O  0.61462462  0.91406492  0.29893922    -0.77300
O80         O  0.63601384  0.84704680  0.24783837    -1.13400
O81         O  0.55265087  0.85832721  0.28046658    -0.72600
C82         C  0.55577036  0.82476269  0.30449810     0.98100
C83         C  0.69188513  0.78473163  0.19094370     0.94500
Al84       Al  0.69204703  0.86168815  0.24827749     1.55600
O85         O  0.57041114  0.79825696  0.21177946    -0.77200
C86         C  0.65253390  0.92799944  0.30554761     0.98700
C87         C  0.69438643  0.79044648  0.30816530     0.93600
O88         O  0.66672702  0.77055454  0.28536294    -0.82500
O89         O  0.09716566  0.30560947  0.05263312    -0.82000
C90         C  0.16244829  0.43777098  0.44453805     0.97400
O91         O  0.13026609  0.44056255  0.46995424    -0.71100
O92         O  0.07576914  0.37744452  0.45152605    -0.74700
Al93       Al  0.10163309  0.39789470  0.00041349     1.49000
C94         C  0.06261110  0.33895720  0.44423642     0.92600
O95         O  0.16021591  0.29068260  0.44589374    -0.80900
O96         O  0.21224816  0.34152744  0.05058855    -0.74500
Al97       Al  0.13063370  0.29909759  0.49890981     1.90100
O98         O  0.21917406  0.32728420  0.46167292    -0.73600
O99         O  0.19092655  0.42448634  0.03591023    -0.73400
O100        O  0.19020920  0.40714389  0.44840168    -0.79100
O101        O  0.12152382  0.42076260  0.05273396    -0.77300
O102        O  0.14334464  0.35686192  0.99976029    -1.13400
O103        O  0.06048388  0.36518791  0.03406657    -0.72600
C104        C  0.06548396  0.33190063  0.05821331     0.98100
C105        C  0.19926286  0.30026855  0.43795167     0.94500
Al106      Al  0.19900904  0.37289189  0.99929002     1.55600
O107        O  0.07821902  0.30619840  0.46474970    -0.77200
C108        C  0.15909476  0.43510192  0.06007363     0.98700
C109        C  0.20556941  0.30112990  0.05689960     0.93600
O110        O  0.17753824  0.28094074  0.03458539    -0.82500
O111        O  0.30248406  0.09451470  0.19916745    -0.82000
C112        C  0.42837048  0.16650096  0.31234102     0.97400
O113        O  0.43184162  0.13150149  0.29048241    -0.71100
O114        O  0.36888465  0.07876500  0.30635064    -0.74700
Al115      Al  0.39184893  0.10027136  0.25490689     1.49000
C116        C  0.33088080  0.06486982  0.31106050     0.92600
O117        O  0.28295537  0.16343515  0.29934446    -0.80900
O118        O  0.33955045  0.21021469  0.19608327    -0.74500
Al119      Al  0.29581633  0.12961831  0.24978260     1.90100
O120        O  0.32090457  0.22199036  0.28254445    -0.73600
O121        O  0.42116907  0.18883178  0.21511849    -0.73400
O122        O  0.40042374  0.19569243  0.30260641    -0.79100
O123        O  0.41906087  0.11755040  0.20378165    -0.77300
O124        O  0.35223948  0.14324694  0.25138050    -1.13400
O125        O  0.36085497  0.05808074  0.22036328    -0.72600
C126        C  0.32848072  0.06225131  0.19534874     0.98100
C127        C  0.29126626  0.20371478  0.30440168     0.94500
Al128      Al  0.36907910  0.19950207  0.24926270     1.55600
O129        O  0.29998632  0.07899498  0.28759536    -0.77200
C130        C  0.43409336  0.15486724  0.19473599     0.98700
C131        C  0.29982325  0.20294251  0.18870467     0.93600
O132        O  0.27893185  0.17650057  0.21214127    -0.82500
O133        O  0.59041403  0.19213958  0.45054052    -0.82000
C134        C  0.67068683  0.05461187  0.05230988     0.97400
O135        O  0.63830262  0.05114994  0.02753681    -0.71100
O136        O  0.58400985  0.11309882  0.05450521    -0.74700
Al137      Al  0.60198836  0.09755826  0.49858231     1.49000
C138        C  0.56766029  0.15053759  0.06282619     0.92600
O139        O  0.66154709  0.20562959  0.05279064    -0.80900
O140        O  0.71051757  0.15667476  0.44790001    -0.74500
Al141      Al  0.62736081  0.19475673  0.00228512     1.90100
O142        O  0.72044471  0.16811286  0.03478643    -0.73600
O143        O  0.68940820  0.07337284  0.45728058    -0.73400
O144        O  0.69625098  0.08652047  0.04818869    -0.79100
O145        O  0.61917127  0.07801394  0.44387002    -0.77300
O146        O  0.64264331  0.13864719  0.49909380    -1.13400
O147        O  0.55829081  0.13161714  0.47008208    -0.72600
C148        C  0.55933953  0.16549715  0.44649096     0.98100
C149        C  0.70129439  0.19607550  0.05867874     0.94500
Al150      Al  0.69845688  0.12193675  0.49728983     1.55600
O151        O  0.57888807  0.18445285  0.04151704    -0.77200
C152        C  0.65663235  0.06397414  0.43404313     0.98700
C153        C  0.70157546  0.19691526  0.44152675     0.93600
O154        O  0.67237573  0.21609015  0.46387276    -0.82500
O155        O  0.91018368  0.29758747  0.20003072    -0.82000
C156        C  0.82838005  0.43275030  0.29897381     0.97400
O157        O  0.86137880  0.43452393  0.27506523    -0.71100
O158        O  0.91491135  0.37323647  0.30397899    -0.74700
Al159      Al  0.89572593  0.38946896  0.24857740     1.49000
C160        C  0.92920411  0.33538688  0.31413547     0.92600
O161        O  0.83931972  0.27662237  0.29878728    -0.80900
O162        O  0.78724209  0.32679533  0.19848983    -0.74500
Al163      Al  0.87378946  0.29102494  0.24982097     1.90100
O164        O  0.78139039  0.31773828  0.28659068    -0.73600
O165        O  0.80775058  0.41002808  0.20615716    -0.73400
O166        O  0.80362719  0.40006593  0.29650243    -0.79100
O167        O  0.87846967  0.40814630  0.19328107    -0.77300
O168        O  0.85597647  0.34717141  0.24853079    -1.13400
O169        O  0.94245443  0.35709038  0.22193195    -0.72600
C170        C  0.94086187  0.32451707  0.19687628     0.98100
C171        C  0.80049232  0.28732426  0.30757927     0.94500
Al172      Al  0.79967989  0.36231145  0.24707772     1.55600
O173        O  0.92063248  0.30182722  0.29094403    -0.77200
C174        C  0.84034383  0.42076852  0.18323692     0.98700
C175        C  0.79965513  0.28813725  0.18962122     0.93600
O176        O  0.83073364  0.26986562  0.20997444    -0.82500
C177        C  0.77010772  0.22969574  0.08502816    -0.12500
C178        C  0.72649409  0.21851310  0.09305966     0.04500
C179        C  0.70779362  0.22954761  0.13349884    -0.07800
C180        C  0.73237988  0.25207739  0.16454942    -0.08500
C181        C  0.77571385  0.26345855  0.15629856    -0.03100
C182        C  0.79465599  0.25225662  0.11616398     0.03800
N183        N  0.83768381  0.26609165  0.10555411     0.66300
H184        H  0.78484544  0.22197672  0.05392536     0.15200
H185        H  0.71767774  0.26036513  0.19554121     0.14900
N186        N  0.66457299  0.21642911  0.14423757     0.74000
O187        O  0.86926585  0.23926930  0.10920576    -0.39500
O188        O  0.84278404  0.30175045  0.08512830    -0.39400
O189        O  0.65859808  0.17923409  0.16151226    -0.40100
O190        O  0.63402268  0.24469254  0.14402526    -0.40200
C191        C  0.76614387  0.20291199  0.39277802    -0.12500
C192        C  0.72679085  0.22151637  0.40812248     0.04500
C193        C  0.71281160  0.26255996  0.39072251    -0.07800
C194        C  0.73728144  0.28293388  0.35813137    -0.08500
C195        C  0.77646283  0.26425923  0.34275369    -0.03100
C196        C  0.79108345  0.22386760  0.36093402     0.03800
N197        N  0.83078558  0.20311829  0.34709570     0.66300
H198        H  0.77803958  0.17175027  0.40577035     0.15200
H199        H  0.72555948  0.31416369  0.34513778     0.14900
N200        N  0.67365013  0.28406670  0.40497752     0.74000
O201        O  0.86553738  0.21004023  0.36777558    -0.39500
O202        O  0.82960770  0.17212128  0.31981017    -0.39400
O203        O  0.67393221  0.30523335  0.44022417    -0.40100
O204        O  0.64414670  0.29246854  0.37758635    -0.40200
C205        C  0.47087857  0.12097211  0.13182319    -0.12500
C206        C  0.46729560  0.15721015  0.15997304     0.04500
C207        C  0.49639579  0.19268680  0.15492071    -0.07800
C208        C  0.52864913  0.19066558  0.12256541    -0.08500
C209        C  0.53288365  0.15343467  0.09572952    -0.03100
C210        C  0.50311168  0.11865550  0.10027544     0.03800
N211        N  0.50420390  0.08112024  0.07216237     0.66300
H212        H  0.44844945  0.09367432  0.13425594     0.15200
H213        H  0.55116647  0.21775052  0.11917208     0.14900
N214        N  0.49494478  0.22993663  0.18329582     0.74000
O215        O  0.52201330  0.04566582  0.08496475    -0.39500
O216        O  0.47519331  0.08934404  0.53226627    -0.39400
O217        O  0.51960383  0.23071265  0.21605671    -0.40100
O218        O  0.47604380  0.26502431  0.17108440    -0.40200
C219        C  0.48802735  0.14256863  0.41655726    -0.12500
C220        C  0.52329335  0.17178703  0.41441267     0.04500
C221        C  0.52396368  0.20293636  0.38022247    -0.07800
C222        C  0.49092229  0.20301218  0.34850968    -0.08500
C223        C  0.45750325  0.17196788  0.34984384    -0.03100
C224        C  0.45589577  0.14198896  0.38457594     0.03800
N225        N  0.42275296  0.10936150  0.38691821     0.66300
H226        H  0.48599019  0.11845861  0.44243979     0.15200
H227        H  0.49276509  0.22577022  0.32142868     0.14900
N228        N  0.55914662  0.23275244  0.37544697     0.74000
O229        O  0.43181928  0.07010207  0.37623791    -0.39500
O230        O  0.38869163  0.11727063  0.40863148    -0.39400
O231        O  0.58796351  0.22482841  0.34720997    -0.40100
O232        O  0.55552339  0.27109151  0.39109530    -0.40200
C233        C  0.04858574  0.32448008  0.13649106    -0.12500
C234        C  0.03398754  0.32456800  0.09340156     0.04500
C235        C  0.98898219  0.32160886  0.08479975    -0.07800
C236        C  0.95944909  0.31829932  0.11919593    -0.08500
C237        C  0.97375677  0.32010406  0.16229318    -0.03100
C238        C  0.01878823  0.32341608  0.17094972     0.03800
N239        N  0.03455568  0.32692825  0.21443331     0.66300
H240        H  0.08311220  0.32760740  0.14341010     0.15200
H241        H  0.92481217  0.31712184  0.11219382     0.14900
N242        N  0.97272907  0.32328832  0.04136687     0.74000
O243        O  0.04843061  0.29285661  0.23380783    -0.39500
O244        O  0.04250171  0.36450651  0.22997259    -0.39400
O245        O  0.96123557  0.28812548  0.02295224    -0.40100
O246        O  0.96149523  0.35999375  0.02523401    -0.40200
C247        C  0.99248550  0.36488576  0.41479135    -0.12500
C248        C  0.02641607  0.33357228  0.41354222     0.04500
C249        C  0.02512702  0.29919115  0.38283884    -0.07800
C250        C  0.99143673  0.29848050  0.35209195    -0.08500
C251        C  0.95887189  0.33153880  0.35172155    -0.03100
C252        C  0.95861834  0.36391869  0.38473159     0.03800
N253        N  0.92424130  0.39608814  0.38821994     0.66300
H254        H  0.99234044  0.39059394  0.43936098     0.15200
H255        H  0.99222951  0.27344567  0.32690417     0.14900
N256        N  0.05952285  0.26708793  0.38018933     0.74000
O257        O  0.88983455  0.38649505  0.40833959    -0.39500
O258        O  0.93148312  0.43586524  0.37881991    -0.39400
O259        O  0.05311624  0.22823089  0.39320777    -0.40100
O260        O  0.09290894  0.27522806  0.35784003    -0.40200
C261        C  0.21538364  0.23545742  0.10409022    -0.12500
C262        C  0.23073114  0.27655859  0.09029255     0.04500
C263        C  0.26993570  0.29256486  0.10819002    -0.07800
C264        C  0.29255072  0.26754803  0.13928063    -0.08500
C265        C  0.27670455  0.22680367  0.15352663    -0.03100
C266        C  0.23772649  0.21068228  0.13534505     0.03800
N267        N  0.22057329  0.16887924  0.14768524     0.66300
H268        H  0.18550136  0.22235664  0.09077014     0.15200
H269        H  0.32230069  0.28058625  0.15295208     0.14900
N270        N  0.28760418  0.33382791  0.09493266     0.74000
O271        O  0.19008170  0.16729108  0.17507704    -0.39500
O272        O  0.22996878  0.13503495  0.12557267    -0.39400
O273        O  0.28117493  0.36774030  0.11792832    -0.40100
O274        O  0.31547921  0.33475708  0.06487893    -0.40200
C275        C  0.20236401  0.24216441  0.38138453    -0.12500
C276        C  0.22221109  0.27823405  0.40157759     0.04500
C277        C  0.26389856  0.29137746  0.38728428    -0.07800
C278        C  0.28547772  0.26709177  0.35508594    -0.08500
C279        C  0.26626437  0.22994270  0.33632902    -0.03100
C280        C  0.22371291  0.21832405  0.34886104     0.03800
N281        N  0.20110060  0.18324232  0.32807259     0.66300
H282        H  0.17009171  0.23191371  0.39108371     0.15200
H283        H  0.31784169  0.27698889  0.34528024     0.14900
N284        N  0.28489228  0.32920721  0.40491579     0.74000
O285        O  0.19721184  0.14683176  0.34740225    -0.39500
O286        O  0.17744185  0.19159930  0.29552325    -0.39400
O287        O  0.31427459  0.32416944  0.43320270    -0.40100
O288        O  0.28004111  0.36620471  0.38663192    -0.40200
C289        C  0.67997393  0.94652067  0.11367947    -0.12500
C290        C  0.66928734  0.96033246  0.15584234     0.04500
C291        C  0.66335598  0.00588758  0.16405976    -0.07800
C292        C  0.66734960  0.03645876  0.13022370    -0.08500
C293        C  0.67610222  0.02243302  0.08780718    -0.03100
C294        C  0.68294164  0.97709330  0.07960035     0.03800
N295        N  0.69220742  0.96165951  0.03673910     0.66300
H296        H  0.68378123  0.91161724  0.10669973     0.15200
H297        H  0.66125306  0.07121397  0.13670560     0.14900
N298        N  0.65231678  0.02152827  0.20643620     0.74000
O299        O  0.73131203  0.95657752  0.02490817    -0.39500
O300        O  0.66210118  0.94556270  0.01403931    -0.39400
O301        O  0.68185757  0.03593637  0.23092345    -0.40100
O302        O  0.61288102  0.02890290  0.21588906    -0.40200
C303        C  0.62731418  0.99914351  0.33432193    -0.12500
C304        C  0.65790479  0.96456532  0.33612779     0.04500
C305        C  0.69190150  0.96589962  0.36678159    -0.07800
C306        C  0.69297729  0.00039953  0.39705861    -0.08500
C307        C  0.66068345  0.03370537  0.39680766    -0.03100
C308        C  0.62871446  0.03385375  0.36377689     0.03800
N309        N  0.59727630  0.06892064  0.35978841     0.66300
H310        H  0.60194435  0.99918818  0.30975184     0.15200
H311        H  0.71759496  0.99967765  0.42233280     0.14900
N312        N  0.72319208  0.93073548  0.36988254     0.74000
O313        O  0.60709989  0.10346261  0.33932831    -0.39500
O314        O  0.55796787  0.06220460  0.36951822    -0.39400
O315        O  0.76126558  0.93612440  0.35556543    -0.40100
O316        O  0.71528292  0.89788806  0.39363894    -0.40200
C317        C  0.79859476  0.50908762  0.10535854    -0.12500
C318        C  0.83443931  0.51221669  0.07740107     0.04500
C319        C  0.86933356  0.48167540  0.08146244    -0.07800
C320        C  0.86930260  0.45099393  0.11500506    -0.08500
C321        C  0.83504428  0.44976499  0.14506448    -0.03100
C322        C  0.79863899  0.47824690  0.13923112     0.03800
N323        N  0.76281772  0.47831546  0.16880553     0.66300
H324        H  0.77145815  0.53218862  0.10236642     0.15200
H325        H  0.89694222  0.42848350  0.11795542     0.14900
N326        N  0.90523064  0.48142081  0.05186494     0.74000
O327        O  0.76338144  0.50340421  0.20146125    -0.39500
O328        O  0.72774442  0.45996213  0.15808855    -0.39400
O329        O  0.94187813  0.49510068  0.06421425    -0.40100
O330        O  0.90240582  0.46035724  0.01668789    -0.40200
C331        C  0.83826530  0.54102037  0.35960090    -0.12500
C332        C  0.81683426  0.53121639  0.39825691     0.04500
C333        C  0.79521642  0.49078747  0.40266240    -0.07800
C334        C  0.79677102  0.45996342  0.36873978    -0.08500
C335        C  0.82040802  0.46866248  0.33070751    -0.03100
C336        C  0.84009452  0.51042517  0.32580277     0.03800
N337        N  0.86301903  0.52201847  0.28716384     0.66300
H338        H  0.85511394  0.57212268  0.35623299     0.15200
H339        H  0.78169263  0.42811238  0.37329814     0.14900
N340        N  0.77425781  0.47941161  0.44242365     0.74000
O341        O  0.84265940  0.54058152  0.25647046    -0.39500
O342        O  0.90415193  0.52192348  0.28724205    -0.39400
O343        O  0.73322495  0.48100928  0.44484525    -0.40100
O344        O  0.79588493  0.46044897  0.47202747    -0.40200
C345        C  0.74882284  0.78934078  0.36820077    -0.12500
C346        C  0.71710406  0.76691158  0.34411361     0.04500
C347        C  0.70819323  0.72246227  0.35489209    -0.07800
C348        C  0.73131585  0.70159676  0.38835035    -0.08500
C349        C  0.76345358  0.72388416  0.41168020    -0.03100
C350        C  0.77172835  0.76842339  0.40179691     0.03800
N351        N  0.80192844  0.79345661  0.42671542     0.66300
H352        H  0.75605642  0.82349776  0.36104591     0.15200
H353        H  0.72454532  0.66732087  0.39560243     0.14900
N354        N  0.67613747  0.69768083  0.33213529     0.74000
O355        O  0.83942504  0.80067841  0.41173983    -0.39500
O356        O  0.78845492  0.81520189  0.45905692    -0.39400
O357        O  0.68796505  0.67111025  0.30276803    -0.40100
O358        O  0.63783791  0.69593966  0.34686985    -0.40200
C359        C  0.77247477  0.75509099  0.10241167    -0.12500
C360        C  0.76364665  0.71027201  0.09522237     0.04500
C361        C  0.73060571  0.69011148  0.12004428    -0.07800
C362        C  0.70701646  0.71509603  0.15054474    -0.08500
C363        C  0.71621301  0.75980267  0.15751810    -0.03100
C364        C  0.74939606  0.77972540  0.13312550     0.03800
N365        N  0.75875768  0.82557648  0.13753360     0.66300
H366        H  0.79731772  0.77166495  0.08374859     0.15200
H367        H  0.68186690  0.69922566  0.16941914     0.14900
N368        N  0.72061357  0.64447136  0.11500087     0.74000
O369        O  0.78876766  0.83736543  0.16283953    -0.39500
O370        O  0.74475789  0.85229710  0.10924389    -0.39400
O371        O  0.73745910  0.61642143  0.14044344    -0.40100
O372        O  0.68931651  0.63341895  0.09094296    -0.40200
C373        C  0.31722262  0.95344569  0.13582202    -0.12500
C374        C  0.31766089  0.96764990  0.09258241     0.04500
C375        C  0.31781334  0.01328730  0.08355859    -0.07800
C376        C  0.31888171  0.04378884  0.11769322    -0.08500
C377        C  0.32178462  0.02942777  0.16081949    -0.03100
C378        C  0.32061299  0.98383927  0.16990391     0.03800
N379        N  0.32385602  0.96794111  0.21344316     0.66300
H380        H  0.31676049  0.91846251  0.14305134     0.15200
H381        H  0.31959749  0.07879545  0.11037978     0.14900
N382        N  0.31704578  0.02907477  0.03988140     0.74000
O383        O  0.28978398  0.95734846  0.23360675    -0.39500
O384        O  0.36062542  0.95658790  0.22835977    -0.39400
O385        O  0.28139728  0.04183587  0.02341386    -0.40100
O386        O  0.35235302  0.03841703  0.02125518    -0.40200
C387        C  0.29725103  0.99420522  0.40599673    -0.12500
C388        C  0.32714683  0.95901090  0.40125317     0.04500
C389        C  0.35393275  0.95693052  0.36419117    -0.07800
C390        C  0.35306033  0.99148254  0.33464036    -0.08500
C391        C  0.32516453  0.02782073  0.34060117    -0.03100
C392        C  0.29606700  0.02870395  0.37575915     0.03800
N393        N  0.26739083  0.06545830  0.38272612     0.66300
H394        H  0.27643696  0.99613129  0.43434919     0.15200
H395        H  0.37512933  0.99039112  0.30719261     0.14900
N396        N  0.38205825  0.91990123  0.35594608     0.74000
O397        O  0.22769352  0.06206188  0.37281418    -0.39500
O398        O  0.27914528  0.09643616  0.40727528    -0.39400
O399        O  0.36870737  0.88907586  0.33206862    -0.40100
O400        O  0.42229177  0.92279451  0.36377983    -0.40200
C401        C  0.48547552  0.79429320  0.09657387    -0.12500
C402        C  0.45175238  0.82605007  0.09982715     0.04500
C403        C  0.45081184  0.85498677  0.13565402    -0.07800
C404        C  0.48542706  0.85517342  0.16461599    -0.08500
C405        C  0.52047262  0.82578210  0.15968008    -0.03100
C406        C  0.51981355  0.79382389  0.12666647     0.03800
N407        N  0.55516542  0.76309683  0.12158228     0.66300
H408        H  0.48653814  0.77169336  0.06936239     0.15200
H409        H  0.48507163  0.87872934  0.19108780     0.14900
N410        N  0.41470260  0.88416732  0.14334464     0.74000
O411        O  0.55233286  0.72480812  0.13733324    -0.39500
O412        O  0.59112959  0.77593054  0.10664560    -0.39400
O413        O  0.38371206  0.87115787  0.16677351    -0.40900
O414        O  0.41858083  0.92487814  0.13586898    -0.40200
C415        C  0.53732109  0.81845156  0.38220686    -0.12500
C416        C  0.52333877  0.81847262  0.33898160     0.04500
C417        C  0.47839816  0.81619657  0.32971725    -0.07800
C418        C  0.44819353  0.81467922  0.36377544    -0.08500
C419        C  0.46205821  0.81747164  0.40700190    -0.03100
C420        C  0.50706961  0.81881071  0.41618136     0.03800
N421        N  0.52245740  0.82104557  0.45986840     0.66300
H422        H  0.57182928  0.82033945  0.38959922     0.15200
H423        H  0.41365239  0.81380686  0.35637868     0.14900
N424        N  0.46298216  0.81635209  0.28596505     0.74000
O425        O  0.53299083  0.78594586  0.47947843    -0.39500
O426        O  0.53317953  0.85777945  0.47561140    -0.39400
O427        O  0.45453657  0.78025795  0.26758220    -0.40100
O428        O  0.44957170  0.85204094  0.26925651    -0.40200
C429        C  0.13803518  0.45696535  0.13379035    -0.12500
C430        C  0.16433090  0.46465613  0.09744470     0.04500
C431        C  0.19072562  0.50242025  0.09632390    -0.07800
C432        C  0.18833750  0.53300391  0.13039811    -0.08500
C433        C  0.15975776  0.52640622  0.16518937    -0.03100
C434        C  0.13552827  0.48738729  0.16749374     0.03800
N435        N  0.10847419  0.47804895  0.20404296     0.66300
H436        H  0.11827738  0.42755865  0.13552588     0.15200
H437        H  0.20696277  0.56313131  0.12849216     0.14900
N438        N  0.21680261  0.51224968  0.05928830     0.74000
O439        O  0.06771247  0.48297468  0.20087450    -0.39500
O440        O  0.12391329  0.45543093  0.23492143    -0.39400
O441        O  0.20254222  0.53926272  0.03138057    -0.40100
O442        O  0.25677489  0.50196672  0.05944615    -0.40200
C443        C  0.17215795  0.49199376  0.33475906    -0.12500
C444        C  0.17144540  0.53679462  0.34617516     0.04500
C445        C  0.17131982  0.54876852  0.39028118    -0.07800
C446        C  0.16855301  0.51588712  0.42208322    -0.08500
C447        C  0.16772341  0.47115698  0.41051675    -0.03100
C448        C  0.17074026  0.45909910  0.36650493     0.03800
N449        N  0.16862819  0.41389778  0.35342048     0.66300
H450        H  0.17192484  0.48257838  0.30081491     0.15200
H451        H  0.16668903  0.52531234  0.45598146     0.14900
N452        N  0.17180266  0.59406131  0.40311236     0.74000
O453        O  0.13198312  0.39588726  0.34949502    -0.39500
O454        O  0.20199239  0.39511576  0.33772646    -0.39400
O455        O  0.13849952  0.61111717  0.42065983    -0.40100
O456        O  0.20771985  0.61373079  0.40545059    -0.40200
C457        C  0.01189197  0.69837408  0.13131002    -0.12500
C458        C  0.02064254  0.65987017  0.15555554     0.04500
C459        C  0.99848550  0.62059444  0.14462408    -0.07800
C460        C  0.96799433  0.62072370  0.11119967    -0.08500
C461        C  0.95892587  0.65906757  0.08768323    -0.03100
C462        C  0.98134628  0.69806971  0.09730315     0.03800
N463        N  0.97531094  0.73656723  0.07109058     0.66300
H464        H  0.02900012  0.72855074  0.13847250     0.15200
H465        H  0.95143008  0.59035024  0.10332804     0.14900
N466        N  0.00816901  0.57944362  0.16534436     0.74000
O467        O  0.95020088  0.76724107  0.08372991    -0.39500
O468        O  0.99041175  0.73732624  0.03301840    -0.39400
O469        O  0.98236923  0.56473774  0.19358521    -0.40100
O470        O  0.03594141  0.55372321  0.14835658    -0.40200
C471        C  0.03252811  0.64973965  0.38410459    -0.12500
C472        C  0.02437788  0.67203003  0.34512754     0.04500
C473        C  0.98490032  0.69584116  0.33966557    -0.07800
C474        C  0.95335991  0.69484317  0.37254247    -0.08500
C475        C  0.96081412  0.66987429  0.41010563    -0.03100
C476        C  0.00113291  0.64831951  0.41643694     0.03800
N477        N  0.00980670  0.62307901  0.45475668     0.66300
H478        H  0.06274542  0.63142334  0.38862607     0.15200
H479        H  0.92198149  0.71090817  0.36745731     0.14900
N480        N  0.97441609  0.71673499  0.29937082     0.74000
O481        O  0.00522979  0.58175781  0.45400688    -0.39500
O482        O  0.02920981  0.64354054  0.98647642    -0.39400
O483        O  0.95608759  0.69485724  0.26985727    -0.40100
O484        O  0.97600875  0.75820081  0.29631217    -0.40200
C485        C  0.22016897  0.77784219  0.09617504    -0.12500
C486        C  0.26484597  0.76809479  0.09092404     0.04500
C487        C  0.28407965  0.73493719  0.11731224    -0.07800
C488        C  0.25867884  0.71246860  0.14762239    -0.08500
C489        C  0.21427056  0.72261514  0.15297861    -0.03100
C490        C  0.19495006  0.75560179  0.12679175     0.03800
N491        N  0.14942380  0.76576142  0.12967019     0.66300
H492        H  0.20435463  0.80272290  0.07614645     0.15200
H493        H  0.27416747  0.68758268  0.16792239     0.14900
N494        N  0.32946750  0.72414348  0.11457153     0.74000
O495        O  0.13682397  0.79949118  0.15038628    -0.39500
O496        O  0.12304163  0.74624657  0.10506207    -0.39400
O497        O  0.35591295  0.74214833  0.14022768    -0.40100
O498        O  0.34181500  0.69135881  0.09230926    -0.40200
C499        C  0.25073120  0.71501335  0.35319535    -0.12500
C500        C  0.21050220  0.73331404  0.33981774     0.04500
C501        C  0.19535309  0.77226789  0.36029704    -0.07800
C502        C  0.22085638  0.79235135  0.39241204    -0.08500
C503        C  0.26130880  0.77412561  0.40533720    -0.03100
C504        C  0.27588847  0.73468308  0.38545699     0.03800
N505        N  0.31665472  0.71445854  0.39680750     0.66300
H506        H  0.26309553  0.68481023  0.33856448     0.15200
H507        H  0.20865945  0.82237683  0.40751741     0.14900
N508        N  0.15457619  0.79225217  0.34866380     0.74000
O509        O  0.31752615  0.68324320  0.42391405    -0.39500
O510        O  0.34991943  0.72184704  0.37401580    -0.39400
O511        O  0.12150702  0.78585247  0.37204295    -0.40100
O512        O  0.15351801  0.82236737  0.32039417    -0.40200
O513        O  0.08397985  0.68931353  0.69474250    -0.82000
C514        C  0.16638112  0.56985916  0.81245694     0.97400
O515        O  0.13201228  0.56459347  0.79100718    -0.71100
O516        O  0.07535357  0.62740565  0.80647475    -0.74700
Al517      Al  0.09786742  0.60268490  0.75546675     1.49000
C518        C  0.05916181  0.66563372  0.81007923     0.92600
O519        O  0.15055647  0.71968054  0.79520451    -0.80900
O520        O  0.20344851  0.65969200  0.69668126    -0.74500
Al521      Al  0.11829253  0.70138257  0.74534514     1.90100
O522        O  0.21061134  0.68198399  0.78237224    -0.73600
O523        O  0.18765457  0.57784924  0.71747804    -0.73400
O524        O  0.19120523  0.60152433  0.80447525    -0.79100
O525        O  0.11714477  0.57360747  0.70530440    -0.77300
O526        O  0.13670786  0.64528122  0.75015264    -1.13400
O527        O  0.05393224  0.62987957  0.72059342    -0.72600
C528        C  0.05517083  0.65997141  0.69243504     0.98100
C529        C  0.19024618  0.71153220  0.80332779     0.94500
Al530      Al  0.19340390  0.63157986  0.75017344     1.55600
O531        O  0.06865901  0.69571585  0.78339596    -0.77200
C532        C  0.15567260  0.56074688  0.69814057     0.98700
C533        C  0.19304855  0.69859951  0.68635861     0.93600
O534        O  0.16348220  0.71927634  0.70666994    -0.82500
O535        O  0.39687568  0.80263347  0.94850507    -0.82000
C536        C  0.32712386  0.93324650  0.55411481     0.97400
O537        O  0.35911062  0.93600131  0.52870301    -0.71100
O538        O  0.41199519  0.87083267  0.55091166    -0.74700
Al539      Al  0.38848682  0.89299749  0.00242165     1.49000
C540        C  0.42506267  0.83200848  0.55882606     0.92600
O541        O  0.33194512  0.78019753  0.54776533    -0.80900
O542        O  0.27781657  0.83907928  0.94952026    -0.74500
Al543      Al  0.36384052  0.79335540  0.49695005     1.90100
O544        O  0.27414669  0.82141515  0.53559075    -0.73600
O545        O  0.30065938  0.92072950  0.96413474    -0.73400
O546        O  0.30116838  0.90157352  0.55080488    -0.79100
O547        O  0.37077592  0.91607666  0.94910767    -0.77300
O548        O  0.34697431  0.85269660  0.00090044    -1.13400
O549        O  0.43237431  0.85989064  0.97164601    -0.72600
C550        C  0.42887038  0.82808675  0.94564165     0.98100
C551        C  0.29297556  0.79058121  0.55616440     0.94500
Al552      Al  0.29136228  0.87017059  0.00097401     1.55600
O553        O  0.41412615  0.79993392  0.53479068    -0.77200
C554        C  0.33302437  0.93055786  0.94061772     0.98700
C555        C  0.28705325  0.79960682  0.93999677     0.93600
O556        O  0.31610680  0.77868038  0.96092126    -0.82500
O557        O  0.89559879  0.68512468  0.55204794    -0.82000
C558        C  0.82286465  0.56130739  0.93218270     0.97400
O559        O  0.85918666  0.55851707  0.95098907    -0.71100
O560        O  0.91233434  0.62322164  0.93912530    -0.74700
Al561      Al  0.88947277  0.59636052  0.49270579     1.49000
C562        C  0.92604158  0.66203903  0.93754157     0.92600
O563        O  0.82743296  0.70864301  0.95072914    -0.80900
O564        O  0.77997509  0.64809209  0.55277014    -0.74500
Al565      Al  0.86109108  0.69332183  0.99971979     1.90100
O566        O  0.76984395  0.66889433  0.96589603    -0.73600
O567        O  0.80154377  0.56662196  0.53151337    -0.73400
O568        O  0.79432614  0.58893496  0.94397327    -0.79100
O569        O  0.87225987  0.56596408  0.54197470    -0.77300
O570        O  0.84707485  0.63659872  0.49778901    -1.13400
O571        O  0.92994593  0.62554002  0.52922210    -0.72600
C572        C  0.92639657  0.65735219  0.55538820     0.98100
C573        C  0.78792072  0.69944390  0.94474526     0.94500
Al574      Al  0.79133902  0.61982118  0.49897656     1.55600
O575        O  0.91115612  0.69147976  0.96248310    -0.77200
C576        C  0.83522644  0.55069863  0.54951647     0.98700
C577        C  0.78659858  0.68809863  0.56120329     0.93600
O578        O  0.81395259  0.70953309  0.53939913    -0.82500
O579        O  0.58446063  0.79901384  0.80147240    -0.82000
C580        C  0.65952650  0.92725551  0.69044846     0.97400
O581        O  0.62603210  0.93168932  0.71377583    -0.71100
O582        O  0.57004368  0.86980202  0.69613262    -0.74700
Al583      Al  0.59378801  0.89039010  0.74800360     1.49000
C584        C  0.55594093  0.83150281  0.69001316     0.92600
O585        O  0.65030567  0.77625270  0.69962518    -0.80900
O586        O  0.70240235  0.83019795  0.80062193    -0.74500
Al587      Al  0.61830666  0.79121789  0.75013755     1.90100
O588        O  0.70926778  0.81403116  0.71320317    -0.73600
O589        O  0.68375270  0.91317804  0.78507006    -0.73400
O590        O  0.68566065  0.89544567  0.69660176    -0.79100
O591        O  0.61364327  0.91521682  0.79987406    -0.77300
O592        O  0.63435850  0.84771317  0.74897081    -1.13400
O593        O  0.55105329  0.86013156  0.78199126    -0.72600
C594        C  0.55406778  0.82689537  0.80643393     0.98100
C595        C  0.68955406  0.78497774  0.69177637     0.94500
Al596      Al  0.69056501  0.86192451  0.74892672     1.55600
O597        O  0.56875578  0.79919296  0.71281201    -0.77200
C598        C  0.65185905  0.92813299  0.80670063     0.98700
C599        C  0.69286644  0.79077429  0.80910691     0.93600
O600        O  0.66423411  0.77130831  0.78719491    -0.82500
O601        O  0.09931521  0.30139449  0.55238324    -0.82000
C602        C  0.16554478  0.43718517  0.94278545     0.97400
O603        O  0.13259399  0.44083225  0.96707314    -0.71100
O604        O  0.07769362  0.37808925  0.94825578    -0.74700
Al605      Al  0.10118591  0.39619097  0.50348077     1.49000
C606        C  0.06283795  0.33992127  0.94280942     0.92600
O607        O  0.15971656  0.28868978  0.94767295    -0.80900
O608        O  0.21414969  0.34059784  0.54939811    -0.74500
Al609      Al  0.12914429  0.30021281  0.99983403     1.90100
O610        O  0.21884562  0.32514787  0.96334608    -0.73600
O611        O  0.19102958  0.42354916  0.53713191    -0.73400
O612        O  0.19222984  0.40570650  0.94742084    -0.79100
O613        O  0.12231185  0.41820110  0.55580929    -0.77300
O614        O  0.14364305  0.35603826  0.50057775    -1.13400
O615        O  0.06191632  0.36166959  0.53762184    -0.72600
C616        C  0.06771276  0.32723503  0.56001157     0.98100
C617        C  0.19932487  0.29685418  0.94063462     0.94500
Al618      Al  0.19906133  0.37323836  0.49924181     1.55600
O619        O  0.07727264  0.30750325  0.96469471    -0.77200
C620        C  0.15980710  0.43313251  0.56236113     0.98700
C621        C  0.20786744  0.29997483  0.55494361     0.93600
O622        O  0.18003699  0.27985193  0.53229439    -0.82500
O623        O  0.30273525  0.09273967  0.69667473    -0.82000
C624        C  0.42913801  0.16210090  0.81165814     0.97400
O625        O  0.43240309  0.12839143  0.78798810    -0.71100
O626        O  0.36946436  0.07533244  0.80338688    -0.74700
Al627      Al  0.39179113  0.09827741  0.75239045     1.49000
C628        C  0.33132717  0.06190458  0.80869167     0.92600
O629        O  0.28101836  0.15964126  0.79839001    -0.80900
O630        O  0.33817251  0.21068449  0.69849871    -0.74500
Al631      Al  0.29537251  0.12691939  0.74820813     1.90100
O632        O  0.32086400  0.21801378  0.78589396    -0.73600
O633        O  0.41991811  0.18832780  0.71525091    -0.73400
O634        O  0.40077148  0.19145714  0.80366409    -0.79100
O635        O  0.41793147  0.11741020  0.70142112    -0.77300
O636        O  0.35175231  0.14107051  0.75061460    -1.13400
O637        O  0.36117045  0.05651617  0.71749600    -0.72600
C638        C  0.32909486  0.06084985  0.69228798     0.98100
C639        C  0.29055380  0.19915446  0.80626447     0.94500
Al640      Al  0.36843125  0.19743139  0.75080987     1.55600
O641        O  0.30018057  0.07595665  0.78544666    -0.77200
C642        C  0.43244822  0.15518647  0.69332649     0.98700
C643        C  0.29900143  0.20230374  0.68955336     0.93600
O644        O  0.27845294  0.17422122  0.71132076    -0.82500
O645        O  0.59038603  0.19077762  0.95137829    -0.82000
C646        C  0.66736439  0.05404223  0.55170515     0.97400
O647        O  0.63480226  0.05157560  0.52704434    -0.71100
O648        O  0.58125701  0.11458676  0.55322598    -0.74700
Al649      Al  0.60424436  0.09653397  0.99955004     1.49000
C650        C  0.56551849  0.15232659  0.56136113     0.92600
O651        O  0.66053894  0.20587495  0.55219015    -0.80900
O652        O  0.71062071  0.15665923  0.94754551    -0.74500
Al653      Al  0.62676014  0.19544414  0.50158033     1.90100
O654        O  0.71871266  0.16666453  0.53570615    -0.73600
O655        O  0.69143087  0.07319720  0.95812242    -0.73400
O656        O  0.69352693  0.08545387  0.54771854    -0.79100
O657        O  0.62117537  0.07749642  0.94441698    -0.77300
O658        O  0.64412743  0.13827844  0.99968062    -1.13400
O659        O  0.55955385  0.12988406  0.97180286    -0.72600
C660        C  0.55991937  0.16331016  0.94756198     0.98100
C661        C  0.69984272  0.19529070  0.55909229     0.94500
Al662      Al  0.70012954  0.12244763  0.99734669     1.55600
O663        O  0.57773153  0.18603276  0.54033214    -0.77200
C664        C  0.65877824  0.06361207  0.93481794     0.98700
C665        C  0.70151119  0.19687965  0.94140747     0.93600
O666        O  0.67250040  0.21600411  0.96412455    -0.82500
O667        O  0.91061490  0.29570981  0.70065176    -0.82000
C668        C  0.82764093  0.43255977  0.79739826     0.97400
O669        O  0.86056060  0.43434519  0.77331215    -0.71100
O670        O  0.91485628  0.37389183  0.80230991    -0.74700
Al671      Al  0.89511274  0.38902447  0.74696959     1.49000
C672        C  0.92868572  0.33625832  0.81366280     0.92600
O673        O  0.83900361  0.27660839  0.79915207    -0.80900
O674        O  0.78690270  0.32528343  0.69871649    -0.74500
Al675      Al  0.87363007  0.29038306  0.75020467     1.90100
O676        O  0.78098025  0.31731260  0.78653725    -0.73600
O677        O  0.80665938  0.40874985  0.70574674    -0.73400
O678        O  0.80332891  0.39949585  0.79568401    -0.79100
O679        O  0.87715206  0.40678732  0.69163074    -0.77300
O680        O  0.85563140  0.34647069  0.74796478    -1.13400
O681        O  0.94197769  0.35645511  0.72034448    -0.72600
C682        C  0.94133982  0.32251641  0.69697141     0.98100
C683        C  0.80014047  0.28721781  0.80774502     0.94500
Al684      Al  0.79921283  0.36135551  0.74675741     1.55600
O685        O  0.91997376  0.30210206  0.79141102    -0.77200
C686        C  0.83887132  0.41965099  0.68248764     0.98700
C687        C  0.79940726  0.28654593  0.69014405     0.93600
O688        O  0.83079239  0.26866105  0.71040985    -0.82500
C689        C  0.77077059  0.21719847  0.59177635    -0.12500
C690        C  0.72493531  0.21726104  0.59404003     0.04500
C691        C  0.70432939  0.23920011  0.62906412    -0.07800
C692        C  0.72941286  0.26130848  0.65993372    -0.08500
C693        C  0.77502418  0.26149092  0.65730786    -0.03100
C694        C  0.79582007  0.23896776  0.62301418     0.03800
N695        N  0.84196202  0.24086140  0.61747846     0.66300
H696        H  0.78737963  0.20106140  0.56497091     0.15200
H697        H  0.71308725  0.27815558  0.68651774     0.14900
N698        N  0.65812512  0.23831132  0.63460970     0.74000
O699        O  0.86594480  0.21084526  0.63340785    -0.39500
O700        O  0.85736527  0.26640085  0.58920224    -0.39400
O701        O  0.64156576  0.20907083  0.65838996    -0.40100
O702        O  0.63522241  0.27114145  0.62304331    -0.40200
C703        C  0.76440967  0.20154293  0.89057131    -0.12500
C704        C  0.72650671  0.22139958  0.90789343     0.04500
C705        C  0.71408836  0.26380196  0.89280400    -0.07800
C706        C  0.73845748  0.28435974  0.86026496    -0.08500
C707        C  0.77614133  0.26431367  0.84286587    -0.03100
C708        C  0.78934615  0.22257304  0.85888829     0.03800
N709        N  0.82751114  0.20050928  0.84287654     0.66300
H710        H  0.77520992  0.16931308  0.90185187     0.15200
H711        H  0.72795675  0.31667987  0.84893873     0.14900
N712        N  0.67687488  0.28663797  0.90985573     0.74000
O713        O  0.86308022  0.20412827  0.86305657    -0.39500
O714        O  0.82398649  0.17150647  0.81376424    -0.39400
O715        O  0.68133533  0.31114866  0.94260049    -0.40100
O716        O  0.64336610  0.29113708  0.88651080    -0.40200
C717        C  0.46661711  0.12430548  0.62770138    -0.12500
C718        C  0.46471973  0.15890600  0.65787955     0.04500
C719        C  0.49506148  0.19350116  0.65449459    -0.07800
C720        C  0.52743766  0.19173947  0.62220922    -0.08500
C721        C  0.53021450  0.15575267  0.59361332    -0.03100
C722        C  0.49876863  0.12232957  0.59608315     0.03800
N723        N  0.49834820  0.08641072  0.56600854     0.66300
H724        H  0.44306483  0.09790661  0.62876439     0.15200
H725        H  0.55121577  0.21785206  0.62031629     0.14900
N726        N  0.49469975  0.22945869  0.68445484     0.74000
O727        O  0.51347296  0.04923824  0.57736836    -0.39500
O728        O  0.48025371  0.08074296  0.03887748    -0.39400
O729        O  0.52127747  0.22937798  0.71571003    -0.40100
O730        O  0.47429371  0.26457126  0.67495744    -0.40200
C731        C  0.49600949  0.13134892  0.91018346    -0.12500
C732        C  0.52415098  0.16746594  0.91466445     0.04500
C733        C  0.51809297  0.20388991  0.88638006    -0.07800
C734        C  0.48530917  0.20288605  0.85427115    -0.08500
C735        C  0.45901324  0.16572739  0.84908552    -0.03100
C736        C  0.46447934  0.12988301  0.87768164     0.03800
N737        N  0.43865403  0.09113745  0.87376122     0.66300
H738        H  0.49930366  0.10272444  0.93108789     0.15200
H739        H  0.48166742  0.23047446  0.83209683     0.14900
N740        N  0.54580263  0.24125771  0.88830682     0.74000
O741        O  0.45409549  0.05784069  0.85422953    -0.39500
O742        O  0.40556820  0.08682857  0.89760566    -0.39400
O743        O  0.56950515  0.24994226  0.85606746    -0.40100
O744        O  0.53877818  0.27063498  0.91654854    -0.40200
C745        C  0.05030432  0.32504626  0.63854485    -0.12500
C746        C  0.03706397  0.31824684  0.59558862     0.04500
C747        C  0.99319791  0.30820110  0.58695590    -0.07800
C748        C  0.96305680  0.30680532  0.62100870    -0.08500
C749        C  0.97558633  0.31604691  0.66370884    -0.03100
C750        C  0.01997244  0.32417775  0.67260311     0.03800
N751        N  0.03460410  0.33154374  0.71599600     0.66300
H752        H  0.08410866  0.33279650  0.64549524     0.15200
H753        H  0.92888661  0.30094649  0.61362699     0.14900
N754        N  0.97870311  0.30046713  0.54360577     0.74000
O755        O  0.04400496  0.29893107  0.73985117    -0.39500
O756        O  0.04580582  0.36972020  0.72749268    -0.39400
O757        O  0.97440522  0.26134006  0.53043431    -0.40100
O758        O  0.96238707  0.33186210  0.52185527    -0.40200
C759        C  0.99487889  0.36911399  0.91131391    -0.12500
C760        C  0.02593179  0.33486200  0.91290493     0.04500
C761        C  0.02088548  0.29771641  0.88601926    -0.07800
C762        C  0.98720906  0.29733072  0.85530635    -0.08500
C763        C  0.95796990  0.33322472  0.85160131    -0.03100
C764        C  0.96069676  0.36834726  0.88165585     0.03800
N765        N  0.92909411  0.40350237  0.88258650     0.66300
H766        H  0.99718373  0.39694437  0.93337417     0.15200
H767        H  0.98537831  0.26983538  0.83284307     0.14900
N768        N  0.05132534  0.26171028  0.88737298     0.74000
O769        O  0.89428863  0.39876050  0.90377605    -0.39500
O770        O  0.93939382  0.44144806  0.86954363    -0.39400
O771        O  0.04086875  0.22622040  0.90583200    -0.40100
O772        O  0.08460714  0.26238073  0.86338780    -0.40200
C773        C  0.21490412  0.23607760  0.60466799    -0.12500
C774        C  0.23260272  0.27518030  0.58845217     0.04500
C775        C  0.27310751  0.28943367  0.60474075    -0.07800
C776        C  0.29450642  0.26493951  0.63709820    -0.08500
C777        C  0.27631702  0.22622261  0.65393468    -0.03100
C778        C  0.23609400  0.21168017  0.63697233     0.03800
N779        N  0.21626223  0.17199042  0.65175712     0.66300
H780        H  0.18390727  0.22442489  0.59258180     0.15200
H781        H  0.32542076  0.27661880  0.64933543     0.14900
N782        N  0.29358482  0.32796582  0.58806009     0.74000
O783        O  0.18669208  0.17404553  0.68015141    -0.39500
O784        O  0.22225844  0.13660128  0.63090125    -0.39400
O785        O  0.29180433  0.36348833  0.60937862    -0.40100
O786        O  0.31966358  0.32446199  0.55657398    -0.40200
C787        C  0.20074798  0.24128992  0.88091449    -0.12500
C788        C  0.22317935  0.27241869  0.90601329     0.04500
C789        C  0.26799748  0.27903729  0.89760956    -0.07800
C790        C  0.28894767  0.25511762  0.86474301    -0.08500
C791        C  0.26652891  0.22393291  0.84005440    -0.03100
C792        C  0.22188916  0.21717590  0.84822684     0.03800
N793        N  0.19706136  0.18741825  0.82244262     0.66300
H794        H  0.16644671  0.23553555  0.88650841     0.15200
H795        H  0.32335178  0.26044671  0.85904253     0.14900
N796        N  0.29316984  0.30919939  0.92255260     0.74000
O797        O  0.18829877  0.14970812  0.83715354    -0.39500
O798        O  0.17680395  0.20181218  0.78961903    -0.39400
O799        O  0.31466737  0.29524554  0.95477883    -0.40100
O800        O  0.30000745  0.34743723  0.90806878    -0.40200
C801        C  0.66949520  0.94503056  0.61232279    -0.12500
C802        C  0.66731469  0.95956800  0.65544885     0.04500
C803        C  0.66906210  0.00522014  0.66415162    -0.07800
C804        C  0.67237866  0.03545561  0.62986296    -0.08500
C805        C  0.67272906  0.02102298  0.58665418    -0.03100
C806        C  0.67185930  0.97531581  0.57795804     0.03800
N807        N  0.67312194  0.95926013  0.53437997     0.66300
H808        H  0.66730653  0.91011861  0.60517116     0.15200
H809        H  0.67227869  0.07052769  0.63694736     0.14900
N810        N  0.66636325  0.02138653  0.70761358     0.74000
O811        O  0.70944472  0.95123673  0.51669170    -0.39500
O812        O  0.63870480  0.94550104  0.51685006    -0.39400
O813        O  0.70081074  0.03074746  0.72779033    -0.40100
O814        O  0.62998469  0.03391100  0.72256315    -0.40200
C815        C  0.63148853  0.00155841  0.83312575    -0.12500
C816        C  0.65809283  0.96405446  0.83763408     0.04500
C817        C  0.68900728  0.96181268  0.87132167    -0.07800
C818        C  0.69143894  0.99651387  0.90124076    -0.08500
C819        C  0.66312710  0.03315077  0.89793742    -0.03100
C820        C  0.63404553  0.03623335  0.86253651     0.03800
N821        N  0.60652738  0.07416903  0.85629286     0.66300
H822        H  0.60829524  0.00383160  0.80660094     0.15200
H823        H  0.71328929  0.99334467  0.92877211     0.14900
N824        N  0.71469589  0.92278225  0.87815390     0.74000
O825        O  0.62189203  0.10822308  0.83874826    -0.39500
O826        O  0.56578598  0.07063715  0.86016159    -0.39400
O827        O  0.75494719  0.92299060  0.86985227    -0.40100
O828        O  0.69905866  0.89137017  0.89978027    -0.40200
C829        C  0.79775030  0.51175559  0.60923039    -0.12500
C830        C  0.83211691  0.51339098  0.57944922     0.04500
C831        C  0.86534979  0.48084757  0.58068185    -0.07800
C832        C  0.86533607  0.44921173  0.61326582    -0.08500
C833        C  0.83284953  0.44933401  0.64518247    -0.03100
C834        C  0.79794909  0.48015684  0.64233950     0.03800
N835        N  0.76427986  0.48193799  0.67432639     0.66300
H836        H  0.77198439  0.53658715  0.60829852     0.15200
H837        H  0.89175487  0.42506631  0.61421151     0.14900
N838        N  0.89964790  0.47972449  0.54927850     0.74000
O839        O  0.76863005  0.50639489  0.70711166    -0.39500
O840        O  0.72729922  0.46653192  0.66560676    -0.39400
O841        O  0.93700677  0.49320766  0.55953881    -0.40100
O842        O  0.89494473  0.45773801  0.51487225    -0.40200
C843        C  0.83489952  0.54228476  0.85587130    -0.12500
C844        C  0.81517444  0.53207304  0.89533096     0.04500
C845        C  0.79476175  0.49113761  0.90067602    -0.07800
C846        C  0.79657560  0.45990508  0.86718161    -0.08500
C847        C  0.81912745  0.46881456  0.82855283    -0.03100
C848        C  0.83686785  0.51130282  0.82239415     0.03800
N849        N  0.85789136  0.52334469  0.78282061     0.66300
H850        H  0.85060812  0.57389942  0.85170320     0.15200
H851        H  0.78264563  0.42763666  0.87253253     0.14900
N852        N  0.77484654  0.47975055  0.94096564     0.74000
O853        O  0.83704655  0.54598265  0.75521824    -0.39500
O854        O  0.89892856  0.52134285  0.78053144    -0.39400
O855        O  0.73392856  0.48198998  0.94464694    -0.40100
O856        O  0.79711967  0.46048942  0.96990741    -0.40200
C857        C  0.74519242  0.79032598  0.87102792    -0.12500
C858        C  0.71585106  0.76707520  0.84476523     0.04500
C859        C  0.70943588  0.72163285  0.85317721    -0.07800
C860        C  0.73264440  0.70066494  0.88647788    -0.08500
C861        C  0.76245447  0.72381475  0.91187994    -0.03100
C862        C  0.76813444  0.76926726  0.90452694     0.03800
N863        N  0.79539182  0.79491825  0.93210555     0.66300
H864        H  0.75035398  0.82524586  0.86577517     0.15200
H865        H  0.72801441  0.66563230  0.89184312     0.14900
N866        N  0.68031212  0.69582754  0.82776638     0.74000
O867        O  0.83249205  0.80638471  0.91895627    -0.39500
O868        O  0.77925133  0.81306092  0.96537374    -0.39400
O869        O  0.69513632  0.67279018  0.79689247    -0.40100
O870        O  0.64212058  0.68934124  0.84129197    -0.40200
C871        C  0.76745229  0.75708980  0.60049341    -0.12500
C872        C  0.76149355  0.71142821  0.59563507     0.04500
C873        C  0.73070786  0.69026022  0.62247645    -0.07800
C874        C  0.70679412  0.71493213  0.65297503    -0.08500
C875        C  0.71338817  0.76038709  0.65782757    -0.03100
C876        C  0.74394102  0.78147078  0.63110392     0.03800
N877        N  0.74990062  0.82811728  0.63299096     0.66300
H878        H  0.79022646  0.77448010  0.58001544     0.15200
H879        H  0.68363418  0.69827216  0.67363633     0.14900
N880        N  0.72369592  0.64381923  0.61981848     0.74000
O881        O  0.78119488  0.84337443  0.65463228    -0.39500
O882        O  0.73081719  0.85247065  0.60555167    -0.39400
O883        O  0.74351717  0.61817629  0.64560313    -0.40100
O884        O  0.69218749  0.62955432  0.59781090    -0.40200
C885        C  0.31905164  0.95247225  0.63183591    -0.12500
C886        C  0.32153257  0.96660518  0.58865317     0.04500
C887        C  0.32302372  0.01226117  0.57972168    -0.07800
C888        C  0.32278335  0.04277609  0.61397219    -0.08500
C889        C  0.32329779  0.02836749  0.65719457    -0.03100
C890        C  0.32160745  0.98275895  0.66606081     0.03800
N891        N  0.32388162  0.96667048  0.70959443     0.66300
H892        H  0.31778419  0.91751780  0.63905070     0.15200
H893        H  0.32435919  0.07776531  0.60679356     0.14900
N894        N  0.32471244  0.02806638  0.53607862     0.74000
O895        O  0.28948951  0.95508161  0.72862398    -0.39500
O896        O  0.36043290  0.95614345  0.72558529    -0.39400
O897        O  0.29003624  0.04069788  0.51759475    -0.40100
O898        O  0.36100931  0.03741853  0.51944726    -0.40200
C899        C  0.29671475  0.99542995  0.90607433    -0.12500
C900        C  0.32753445  0.96075315  0.90379202     0.04500
C901        C  0.35560447  0.95764482  0.86770404    -0.07800
C902        C  0.35430153  0.99024144  0.83615146    -0.08500
C903        C  0.32544697  0.02612361  0.83961236    -0.03100
C904        C  0.29566304  0.02839609  0.87417727     0.03800
N905        N  0.26708963  0.06562015  0.87927863     0.66300
H906        H  0.27522574  0.99832777  0.93383210     0.15200
H907        H  0.37701296  0.98819382  0.80927048     0.14900
N908        N  0.38596297  0.92181053  0.86273279     0.74000
O909        O  0.22731006  0.06220729  0.86967587    -0.39500
O910        O  0.27972659  0.09881876  0.90030861    -0.39400
O911        O  0.37527128  0.88872129  0.84049905    -0.40100
O912        O  0.42557125  0.92740662  0.87203795    -0.40200
C913        C  0.49118742  0.79662246  0.59173857    -0.12500
C914        C  0.45503862  0.82540844  0.59558267     0.04500
C915        C  0.45093630  0.85230037  0.63271720    -0.07800
C916        C  0.48402622  0.85273481  0.66341720    -0.08500
C917        C  0.52105656  0.82605217  0.65845095    -0.03100
C918        C  0.52438733  0.79686835  0.62312236     0.03800
N919        N  0.56270872  0.77026773  0.61702796     0.66300
H920        H  0.49488652  0.77601822  0.56324943     0.15200
H921        H  0.48105808  0.87460676  0.69111563     0.14900
N922        N  0.41332502  0.87960725  0.63968120     0.74000
O923        O  0.56364152  0.73098515  0.63059829    -0.39500
O924        O  0.59735431  0.78772793  0.60373072    -0.39400
O925        O  0.38167801  0.86434443  0.66076773    -0.40900
O926        O  0.41595804  0.92074090  0.63408314    -0.40200
C927        C  0.53649488  0.82834319  0.88470538    -0.12500
C928        C  0.52240975  0.82197802  0.84198462     0.04500
C929        C  0.47788789  0.81452700  0.83387857    -0.07800
C930        C  0.44823838  0.81350283  0.86851820    -0.08500
C931        C  0.46193946  0.82206333  0.91110888    -0.03100
C932        C  0.50664771  0.82916341  0.91911560     0.03800
N933        N  0.52221382  0.83741330  0.96201763     0.66300
H934        H  0.57063620  0.83438422  0.89118936     0.15200
H935        H  0.41399784  0.80844365  0.86179120     0.14900
N936        N  0.46216866  0.80914391  0.79058887     0.74000
O937        O  0.53287700  0.80538545  0.98611656    -0.39500
O938        O  0.53249994  0.87607030  0.97282863    -0.39400
O939        O  0.45284915  0.77111071  0.77708924    -0.40100
O940        O  0.44936822  0.84256710  0.76948933    -0.40200
C941        C  0.13888124  0.45595164  0.63596213    -0.12500
C942        C  0.16572314  0.46252728  0.59979364     0.04500
C943        C  0.19392609  0.49896232  0.59905616    -0.07800
C944        C  0.19222090  0.52985698  0.63289243    -0.08500
C945        C  0.16279893  0.52469867  0.66723960    -0.03100
C946        C  0.13733396  0.48649819  0.66959937     0.03800
N947        N  0.11002575  0.47810426  0.70618870     0.66300
H948        H  0.11805438  0.42731918  0.63768381     0.15200
H949        H  0.21209467  0.55915288  0.63110158     0.14900
N950        N  0.22166313  0.50698782  0.56277618     0.74000
O951        O  0.06930471  0.48319372  0.70273843    -0.39500
O952        O  0.12525249  0.45636974  0.73777788    -0.39400
O953        O  0.20898295  0.53283260  0.53312034    -0.40100
O954        O  0.26125245  0.49534167  0.56452275    -0.40200
C955        C  0.17965563  0.49279257  0.83427869    -0.12500
C956        C  0.17672126  0.53739203  0.84626801     0.04500
C957        C  0.17483801  0.54880011  0.89042976    -0.07800
C958        C  0.17176557  0.51545222  0.92161182    -0.08500
C959        C  0.17291905  0.47086363  0.90951665    -0.03100
C960        C  0.17858457  0.45944813  0.86560716     0.03800
N961        N  0.17940368  0.41431330  0.85210655     0.66300
H962        H  0.18092163  0.48383303  0.80020181     0.15200
H963        H  0.16780362  0.52440713  0.95547968     0.14900
N964        N  0.17368339  0.59394046  0.90380995     0.74000
O965        O  0.14431202  0.39570167  0.84187340    -0.39500
O966        O  0.21536491  0.39558306  0.84362556    -0.39400
O967        O  0.13956682  0.60975356  0.92090120    -0.40100
O968        O  0.20891491  0.61471027  0.90702448    -0.40200
C969        C  0.01262857  0.69880573  0.63354123    -0.12500
C970        C  0.02208608  0.65999936  0.65711750     0.04500
C971        C  0.99934218  0.62099793  0.64653892    -0.07800
C972        C  0.96793769  0.62156150  0.61389105    -0.08500
C973        C  0.95836939  0.66011791  0.59079719    -0.03100
C974        C  0.98105315  0.69899819  0.60039504     0.03800
N975        N  0.97427445  0.73790633  0.57495549     0.66300
H976        H  0.02999502  0.72886562  0.64054887     0.15200
H977        H  0.95118249  0.59126902  0.60613448     0.14900
N978        N  0.00932496  0.57967151  0.66678916     0.74000
O979        O  0.94892311  0.76802130  0.58838886    -0.39500
O980        O  0.98927097  0.73974302  0.53688584    -0.39400
O981        O  0.98400124  0.56474806  0.69534438    -0.40100
O982        O  0.03707829  0.55419375  0.64942116    -0.40200
C983        C  0.03477852  0.65056859  0.88428065    -0.12500
C984        C  0.02801000  0.67368231  0.84548510     0.04500
C985        C  0.98932225  0.69882330  0.83988841    -0.07800
C986        C  0.95662884  0.69721465  0.87165700    -0.08500
C987        C  0.96259704  0.67125083  0.90882299    -0.03100
C988        C  0.00266917  0.64947105  0.91600396     0.03800
N989        N  0.01067845  0.62499668  0.95493433     0.66300
H990        H  0.06453598  0.63170008  0.88924353     0.15200
H991        H  0.92577191  0.71412483  0.86618497     0.14900
N992        N  0.98114962  0.72269867  0.80070127     0.74000
O993        O  0.00741116  0.58353088  0.95462891    -0.39500
O994        O  0.03011703  0.64051185  0.48581195    -0.39400
O995        O  0.95827653  0.70565200  0.77125509    -0.40100
O996        O  0.99027452  0.76312673  0.79868050    -0.40200
C997        C  0.22353613  0.77614879  0.59502740    -0.12500
C998        C  0.26814100  0.76618043  0.58963099     0.04500
C999        C  0.28722906  0.73256606  0.61555772    -0.07800
C1000       C  0.26183934  0.71032679  0.64604068    -0.08500
C1001       C  0.21753915  0.72089842  0.65167484    -0.03100
C1002       C  0.19827579  0.75388270  0.62550875     0.03800
N1003       N  0.15271164  0.76389717  0.62816579     0.66300
H1004       H  0.20775438  0.80116542  0.57513466     0.15200
H1005       H  0.27722002  0.68520588  0.66614279     0.14900
N1006       N  0.33233776  0.72081076  0.61190986     0.74000
O1007       O  0.13990417  0.79775831  0.64854643    -0.39500
O1008       O  0.12647034  0.74396238  0.60373696    -0.39400
O1009       O  0.35944552  0.73690525  0.63812030    -0.40100
O1010       O  0.34363698  0.68867795  0.58824011    -0.40200
C1011       C  0.25555895  0.71944164  0.85049036    -0.12500
C1012       C  0.21417548  0.73554956  0.83800277     0.04500
C1013       C  0.19717493  0.77329421  0.85934995    -0.07800
C1014       C  0.22159657  0.79389857  0.89196493    -0.08500
C1015       C  0.26280632  0.77741871  0.90453197    -0.03100
C1016       C  0.27967047  0.73965382  0.88325943     0.03800
N1017       N  0.32164729  0.72169160  0.89384224     0.66300
H1018       H  0.26954108  0.69044227  0.83495032     0.15200
H1019       H  0.20783312  0.82274268  0.90797164     0.14900
N1020       N  0.15535338  0.79131584  0.84838056     0.74000
O1021       O  0.32467032  0.69005208  0.92034703    -0.39500
O1022       O  0.35419306  0.73167320  0.87102163    -0.39400
O1023       O  0.12279700  0.78251144  0.87167643    -0.40100
O1024       O  0.15244789  0.82171943  0.82051334    -0.40200
loop_ 
_geom_bond_atom_site_label_1 
_geom_bond_atom_site_label_2 
_geom_bond_distance 
_geom_bond_site_symmetry_2 
_ccdc_geom_bond_type 
O1           C16   1.264       .  A
O1           Al9   1.919       .  S
C2           O12   1.258       .  A
C2            O3   1.256       .  A
C2          C444   1.468       .  S
O3           Al5   1.896       .  S
O4            C6   1.258       .  A
O4           Al5   1.865       .  S
Al5          O13   1.871       .  S
Al5          O15   1.898       .  S
Al5          O14   1.776       .  S
C6           O19   1.264       .  A
C6          C472   1.465       .  S
O7           C17   1.266       .  A
O7           Al9   1.919       .  S
O8           C21   1.259       .  A
O8          Al18   1.887       .  S
Al9          O22   1.913       .  S
Al9          O19   1.932       .  S
Al9          O14   1.791       .  S
O10          C17   1.262       .  A
O10         Al18   1.896       .  S
O11          C20   1.265       .  A
O11         Al18   1.924       .  S
O12         Al18   1.912       .  S
O13          C20   1.259       .  A
O14         Al18   1.780       .  S
O15          C16   1.259       .  A
C16         C458   1.485       .  S
C17         C500   1.490       .  S
C20         C433   1.463       .  S
C21          O22   1.262       .  A
C21         C489   1.477       .  S
O23          C38   1.258       .  A
O23        Al543   1.908       .  S
C24          O34   1.259       .  A
C24          O25   1.258       .  A
C24         C374   1.474       .  S
O25        Al539   1.918       .  S
O26          C28   1.261       .  A
O26        Al539   1.867       .  S
Al27         O35   1.870       .  S
Al27         O37   1.915       .  S
Al27        O537   1.925       .  S
Al27        O538   1.867       .  S
Al27         O36   1.776       .  S
C28          O41   1.270       .  A
C28         C402   1.471       .  S
O29          C39   1.260       .  A
O29         Al31   1.893   1_554  S
O30          C43   1.260       .  A
O30         Al40   1.889       .  S
Al31         O41   1.940   1_556  S
Al31        O535   1.912       .  S
Al31        O556   1.916       .  S
Al31        O548   1.779   1_556  S
O32          C39   1.263       .  A
O32        Al552   1.907       .  S
O33          C42   1.268       .  A
O33         Al40   1.929       .  S
O34        Al552   1.911       .  S
O35          C42   1.261       .  A
O36         Al40   1.778       .  S
O36        Al543   1.779       .  S
O37          C38   1.258       .  A
C38         C419   1.473       .  S
C39         C486   1.487       .  S
Al40        O544   1.904       .  S
Al40        O546   1.909       .  S
C42         C388   1.466       .  S
C43          O44   1.265       .  A
C43         C503   1.488       .  S
O44        Al543   1.922       .  S
O45          C60   1.261       .  A
O45        Al565   1.894   1_554  S
C46          O56   1.258       .  A
C46          O47   1.257       .  A
C46         C332   1.463       .  S
O47        Al561   1.899       .  S
O48          C50   1.255       .  A
O48        Al561   1.868       .  S
Al49         O57   1.860   1_556  S
Al49         O59   1.902   1_556  S
Al49        O559   1.897       .  S
Al49        O560   1.872       .  S
Al49         O58   1.779       .  S
C50          O63   1.260       .  A
C50         C475   1.455       .  S
O51          C61   1.260       .  A
O51         Al53   1.885       .  S
O52          C65   1.259       .  A
O52         Al62   1.898   1_554  S
Al53         O63   1.917       .  S
Al53        O557   1.902       .  S
Al53        O578   1.902       .  S
Al53        O570   1.791       .  S
O54          C61   1.265       .  A
O54        Al574   1.916       .  S
O55          C64   1.263       .  A
O55         Al62   1.923   1_554  S
O56        Al574   1.899       .  S
O57          C64   1.254       .  A
O58         Al62   1.792       .  S
O58        Al565   1.793       .  S
O59          C60   1.261       .  A
C60         C461   1.466       .  S
C61         C349   1.475       .  S
Al62        O566   1.918       .  S
Al62        O568   1.897       .  S
C64         C318   1.471       .  S
C65          O66   1.261       .  A
C65         C360   1.485       .  S
O66        Al565   1.900   1_554  S
O67          C82   1.259       .  A
O67         Al75   1.901       .  S
C68          O78   1.261       .  A
C68          O69   1.261       .  A
C68         C290   1.481       .  S
O69         Al71   1.919       .  S
O70          C72   1.258       .  A
O70         Al71   1.865       .  S
Al71         O79   1.872       .  S
Al71         O81   1.921       .  S
Al71         O80   1.779       .  S
C72          O85   1.263       .  A
C72         C405   1.457       .  S
O73          C83   1.260       .  A
O73         Al75   1.891       .  S
O74          C87   1.262       .  A
O74         Al84   1.893       .  S
Al75         O88   1.908       .  S
Al75         O85   1.921       .  S
Al75         O80   1.787       .  S
O76          C83   1.262       .  A
O76         Al84   1.908       .  S
O77          C86   1.264       .  A
O77         Al84   1.925       .  S
O78         Al84   1.913       .  S
O79          C86   1.259       .  A
O80         Al84   1.781       .  S
O81          C82   1.261       .  A
C82         C416   1.471       .  S
C83         C363   1.475       .  S
C86         C304   1.466       .  S
C87          O88   1.261       .  A
C87         C346   1.486       .  S
O89         C104   1.261       .  A
O89        Al609   1.907   1_554  S
C90         O100   1.257       .  A
C90          O91   1.263       .  A
C90         C447   1.467       .  S
O91        Al605   1.924       .  S
O92          C94   1.259       .  A
O92        Al605   1.872       .  S
Al93        O101   1.861       .  S
Al93        O103   1.920       .  S
Al93        O603   1.919   1_554  S
Al93        O604   1.870   1_554  S
Al93        O102   1.773   1_554  S
C94         O107   1.265       .  A
C94         C248   1.469       .  S
O95         C105   1.261       .  A
O95         Al97   1.886       .  S
O96         C109   1.259       .  A
O96        Al106   1.886   1_554  S
Al97        O107   1.931       .  S
Al97        O601   1.909       .  S
Al97        O622   1.916       .  S
Al97        O614   1.777       .  S
O98         C105   1.261       .  A
O98        Al618   1.908       .  S
O99         C108   1.267       .  A
O99        Al106   1.942   1_554  S
O100       Al618   1.891       .  S
O101        C108   1.258       .  A
O102       Al106   1.782       .  S
O102       Al609   1.776       .  S
O103        C104   1.261       .  A
C104        C234   1.472       .  S
C105        C276   1.479       .  S
Al106       O610   1.916       .  S
Al106       O612   1.893       .  S
C108        C430   1.469       .  S
C109        O110   1.265       .  A
C109        C262   1.481       .  S
O110       Al609   1.915   1_554  S
O111        C126   1.259       .  A
O111       Al119   1.898       .  S
C112        O122   1.260       .  A
C112        O113   1.260       .  A
C112        C223   1.472       .  S
O113       Al115   1.906       .  S
O114        C116   1.253       .  A
O114       Al115   1.857       .  S
Al115       O123   1.862       .  S
Al115       O125   1.924       .  S
Al115       O124   1.773       .  S
C116        O129   1.262       .  A
C116        C391   1.458       .  S
O117        C127   1.260       .  A
O117       Al119   1.879       .  S
O118        C131   1.262       .  A
O118       Al128   1.898       .  S
Al119       O132   1.901       .  S
Al119       O129   1.929       .  S
Al119       O124   1.786       .  S
O120        C127   1.265       .  A
O120       Al128   1.918       .  S
O121        C130   1.265       .  A
O121       Al128   1.938       .  S
O122       Al128   1.907       .  S
O123        C130   1.258       .  A
O124       Al128   1.789       .  S
O125        C126   1.262       .  A
C126        C377   1.473       .  S
C127        C279   1.474       .  S
C130        C206   1.481       .  S
C131        O132   1.260       .  A
C131        C265   1.479       .  S
O133        C148   1.263       .  A
O133       Al653   1.931       .  S
C134        O144   1.259       .  A
C134        O135   1.258       .  A
C134        C293   1.473       .  S
O135       Al649   1.921   1_554  S
O136        C138   1.261       .  A
O136       Al649   1.871   1_554  S
Al137       O145   1.862       .  S
Al137       O147   1.897       .  S
Al137       O647   1.920       .  S
Al137       O648   1.871       .  S
Al137       O146   1.774       .  S
C138        O151   1.271       .  A
C138        C209   1.474       .  S
O139        C149   1.263       .  A
O139       Al141   1.908       .  S
O140        C153   1.262       .  A
O140       Al150   1.890       .  S
Al141       O151   1.946       .  S
Al141       O645   1.941   1_554  S
Al141       O666   1.934   1_554  S
Al141       O658   1.782   1_554  S
O142        C149   1.262       .  A
O142       Al662   1.912   1_554  S
O143        C152   1.270       .  A
O143       Al150   1.943       .  S
O144       Al662   1.913   1_554  S
O145        C152   1.258       .  A
O146       Al150   1.780       .  S
O146       Al653   1.784       .  S
O147        C148   1.259       .  A
C148        C220   1.494       .  S
C149        C178   1.482       .  S
Al150       O654   1.910       .  S
Al150       O656   1.914       .  S
C152        C307   1.474       .  S
C153        O154   1.266       .  A
C153        C192   1.493       .  S
O154       Al653   1.930       .  S
O155        C170   1.258       .  A
O155       Al163   1.910       .  S
C156        O166   1.258       .  A
C156        O157   1.254       .  A
C156        C335   1.481       .  S
O157       Al159   1.899       .  S
O158        C160   1.262       .  A
O158       Al159   1.870       .  S
Al159       O167   1.870       .  S
Al159       O169   1.913       .  S
Al159       O168   1.781       .  S
C160        O173   1.273       .  A
C160        C251   1.477       .  S
O161        C171   1.260       .  A
O161       Al163   1.898       .  S
O162        C175   1.257       .  A
O162       Al172   1.886       .  S
Al163       O176   1.920       .  S
Al163       O173   1.947       .  S
Al163       O168   1.781       .  S
O164        C171   1.264       .  A
O164       Al172   1.908       .  S
O165        C174   1.271       .  A
O165       Al172   1.937       .  S
O166       Al172   1.910       .  S
O167        C174   1.264       .  A
O168       Al172   1.782       .  S
O169        C170   1.255       .  A
C170        C237   1.473       .  S
C171        C195   1.491       .  S
C174        C321   1.476       .  S
C175        O176   1.263       .  A
C175        C181   1.472       .  S
C177        C178   1.407       .  A
C177        C182   1.403       .  A
C177        H184   1.085       .  S
C178        C179   1.411       .  A
C179        C180   1.401       .  A
C179        N186   1.428       .  S
C180        C181   1.401       .  A
C180        H185   1.085       .  S
C181        C182   1.407       .  A
C182        N183   1.428       .  S
N183        O187   1.262       .  A
N183        O188   1.262       .  A
N186        O190   1.261       .  A
N186        O189   1.262       .  A
C191        C192   1.408       .  A
C191        C196   1.402       .  A
C191        H198   1.084       .  S
C192        C193   1.416       .  A
C193        C194   1.402       .  A
C193        N200   1.429       .  S
C194        C195   1.405       .  A
C194        H199   1.084       .  S
C195        C196   1.414       .  A
C196        N197   1.429       .  S
N197        O201   1.262       .  A
N197        O202   1.262       .  A
N200        O204   1.261       .  A
N200        O203   1.262       .  A
C205        C206   1.403       .  A
C205        C210   1.389       .  A
C205        H212   1.085       .  S
C206        C207   1.415       .  A
C207        C208   1.406       .  A
C207        N214   1.428       .  S
C208        C209   1.404       .  A
C208        H213   1.085       .  S
C209        C210   1.411       .  A
C210        N211   1.430       .  S
N211        O215   1.262       .  A
N211        O728   1.262       .  A
N214        O218   1.262       .  A
N214        O217   1.262       .  A
O216        N723   1.262       .  A
C219        C220   1.409       .  A
C219        C224   1.394       .  A
C219        H226   1.084       .  S
C220        C221   1.415       .  A
C221        C222   1.408       .  A
C221        N228   1.424       .  S
C222        C223   1.401       .  A
C222        H227   1.085       .  S
C223        C224   1.405       .  A
C224        N225   1.429       .  S
N225        O229   1.262       .  A
N225        O230   1.262       .  A
N228        O232   1.262       .  A
N228        O231   1.262       .  A
C233        C234   1.401       .  A
C233        C238   1.403       .  A
C233        H240   1.086       .  S
C234        C235   1.410   1_455  A
C235        C236   1.400       .  A
C235        N242   1.429       .  S
C236        C237   1.400       .  A
C236        H241   1.085       .  S
C237        C238   1.412   1_655  A
C238        N239   1.429       .  S
N239        O243   1.262       .  A
N239        O244   1.262       .  A
N242        O246   1.262       .  A
N242        O245   1.262       .  A
C247        C248   1.400   1_655  A
C247        C252   1.393       .  A
C247        H254   1.087       .  S
C248        C249   1.409       .  A
C249        C250   1.402   1_455  A
C249        N256   1.428       .  S
C250        C251   1.406       .  A
C250        H255   1.086       .  S
C251        C252   1.414       .  A
C252        N253   1.431       .  S
N253        O257   1.262       .  A
N253        O258   1.262       .  A
N256        O260   1.262       .  A
N256        O259   1.262       .  A
C261        C262   1.403       .  A
C261        C266   1.395       .  A
C261        H268   1.084       .  S
C262        C263   1.415       .  A
C263        C264   1.400       .  A
C263        N270   1.429       .  S
C264        C265   1.403       .  A
C264        H269   1.084       .  S
C265        C266   1.413       .  A
C266        N267   1.430       .  S
N267        O271   1.262       .  A
N267        O272   1.262       .  A
N270        O274   1.262       .  A
N270        O273   1.262       .  A
C275        C276   1.404       .  A
C275        C280   1.395       .  A
C275        H282   1.084       .  S
C276        C277   1.415       .  A
C277        C278   1.398       .  A
C277        N284   1.429       .  S
C278        C279   1.402       .  A
C278        H283   1.084       .  S
C279        C280   1.411       .  A
C280        N281   1.429       .  S
N281        O285   1.261       .  A
N281        O286   1.262       .  A
N284        O288   1.262       .  A
N284        O287   1.262       .  A
C289        C290   1.403       .  A
C289        C294   1.404       .  A
C289        H296   1.084       .  S
C290        C291   1.413   1_565  A
C291        C292   1.401       .  A
C291        N298   1.429       .  S
C292        C293   1.400       .  A
C292        H297   1.086       .  S
C293        C294   1.410   1_545  A
C294        N295   1.429       .  S
N295        O299   1.262       .  A
N295        O300   1.262       .  A
N298        O302   1.262       .  A
N298        O301   1.262       .  A
C303        C304   1.399       .  A
C303        C308   1.391   1_565  A
C303        H310   1.086       .  S
C304        C305   1.408       .  A
C305        C306   1.402   1_565  A
C305        N312   1.428       .  S
C306        C307   1.405       .  A
C306        H311   1.085   1_545  S
C307        C308   1.413       .  A
C308        N309   1.431       .  S
N309        O313   1.262       .  A
N309        O314   1.262       .  A
N312        O316   1.262       .  A
N312        O315   1.262       .  A
C317        C318   1.402       .  A
C317        C322   1.401       .  A
C317        H324   1.085       .  S
C318        C319   1.412       .  A
C319        C320   1.390       .  A
C319        N326   1.431       .  S
C320        C321   1.402       .  A
C320        H325   1.085       .  S
C321        C322   1.414       .  A
C322        N323   1.428       .  S
N323        O327   1.262       .  A
N323        O328   1.262       .  A
N326        O330   1.262       .  A
N326        O329   1.262       .  A
C331        C332   1.395       .  A
C331        C336   1.395       .  A
C331        H338   1.086       .  S
C332        C333   1.407       .  A
C333        C334   1.403       .  A
C333        N340   1.429       .  S
C334        C335   1.406       .  A
C334        H339   1.085       .  S
C335        C336   1.417       .  A
C336        N337   1.430       .  S
N337        O341   1.262       .  A
N337        O342   1.262       .  A
N340        O344   1.262       .  A
N340        O343   1.262       .  A
C345        C346   1.406       .  A
C345        C350   1.398       .  A
C345        H352   1.084       .  S
C346        C347   1.417       .  A
C347        C348   1.398       .  A
C347        N354   1.429       .  S
C348        C349   1.401       .  A
C348        H353   1.085       .  S
C349        C350   1.410       .  A
C350        N351   1.429       .  S
N351        O355   1.262       .  A
N351        O356   1.262       .  A
N354        O358   1.262       .  A
N354        O357   1.262       .  A
C359        C360   1.406       .  A
C359        C364   1.394       .  A
C359        H366   1.084       .  S
C360        C361   1.415       .  A
C361        C362   1.403       .  A
C361        N368   1.429       .  S
C362        C363   1.404       .  A
C362        H367   1.084       .  S
C363        C364   1.408       .  A
C364        N365   1.429       .  S
N365        O369   1.262       .  A
N365        O370   1.261       .  A
N368        O372   1.262       .  A
N368        O371   1.262       .  A
C373        C374   1.401       .  A
C373        C378   1.402       .  A
C373        H380   1.083       .  S
C374        C375   1.411   1_565  A
C375        C376   1.401       .  A
C375        N382   1.429       .  S
C376        C377   1.401       .  A
C376        H381   1.085       .  S
C377        C378   1.410   1_545  A
C378        N379   1.429       .  S
N379        O383   1.262       .  A
N379        O384   1.262       .  A
N382        O386   1.262       .  A
N382        O385   1.262       .  A
C387        C388   1.405       .  A
C387        C392   1.400   1_565  A
C387        H394   1.084       .  S
C388        C389   1.409       .  A
C389        C390   1.388       .  A
C389        N396   1.429       .  S
C390        C391   1.398   1_565  A
C390        H395   1.084       .  S
C391        C392   1.405       .  A
C392        N393   1.427       .  S
N393        O397   1.261       .  A
N393        O398   1.262       .  A
N396        O400   1.262       .  A
N396        O399   1.262       .  A
C401        C402   1.407       .  A
C401        C406   1.403       .  A
C401        H408   1.083       .  S
C402        C403   1.410       .  A
C403        C404   1.387       .  A
C403        N410   1.428       .  S
C404        C405   1.396       .  A
C404        H409   1.084       .  S
C405        C406   1.405       .  A
C406        N407   1.429       .  S
N407        O411   1.262       .  A
N407        O412   1.262       .  A
N410        O414   1.262       .  A
N410        O413   1.262       .  A
C415        C416   1.400       .  A
C415        C420   1.400       .  A
C415        H422   1.085       .  S
C416        C417   1.411       .  A
C417        C418   1.402       .  A
C417        N424   1.429       .  S
C418        C419   1.401       .  A
C418        H423   1.085       .  S
C419        C420   1.411       .  A
C420        N421   1.429       .  S
N421        O425   1.262       .  A
N421        O426   1.262       .  A
N424        O428   1.262       .  A
N424        O427   1.262       .  A
C429        C430   1.402       .  A
C429        C434   1.391       .  A
C429        H436   1.086       .  S
C430        C431   1.411       .  A
C431        C432   1.402       .  A
C431        N438   1.428       .  S
C432        C433   1.402       .  A
C432        H437   1.085       .  S
C433        C434   1.407       .  A
C434        N435   1.430       .  S
N435        O439   1.261       .  A
N435        O440   1.261       .  A
N438        O442   1.262       .  A
N438        O441   1.261       .  A
C443        C444   1.402       .  A
C443        C448   1.398       .  A
C443        H450   1.085       .  S
C444        C445   1.407       .  A
C445        C446   1.401       .  A
C445        N452   1.429       .  S
C446        C447   1.402       .  A
C446        H451   1.085       .  S
C447        C448   1.408       .  A
C448        N449   1.430       .  S
N449        O453   1.262       .  A
N449        O454   1.262       .  A
N452        O456   1.262       .  A
N452        O455   1.261       .  A
C457        C458   1.408       .  A
C457        C462   1.406   1_455  A
C457        H464   1.083       .  S
C458        C459   1.419   1_455  A
C459        C460   1.391       .  A
C459        N466   1.429   1_655  S
C460        C461   1.394       .  A
C460        H465   1.085       .  S
C461        C462   1.407       .  A
C462        N463   1.429       .  S
N463        O467   1.261       .  A
N463        O468   1.262       .  A
N466        O470   1.261       .  A
N466        O469   1.262   1_455  A
C471        C472   1.399       .  A
C471        C476   1.388       .  A
C471        H478   1.083       .  S
C472        C473   1.412   1_455  A
C473        C474   1.402       .  A
C473        N480   1.429       .  S
C474        C475   1.400       .  A
C474        H479   1.084       .  S
C475        C476   1.405   1_655  A
C476        N477   1.430       .  S
N477        O481   1.262       .  A
N477        O994   1.262       .  A
N480        O484   1.262       .  A
N480        O483   1.262       .  A
O482        N989   1.262       .  A
C485        C486   1.408       .  A
C485        C490   1.399       .  A
C485        H492   1.084       .  S
C486        C487   1.415       .  A
C487        C488   1.399       .  A
C487        N494   1.429       .  S
C488        C489   1.403       .  A
C488        H493   1.084       .  S
C489        C490   1.409       .  A
C490        N491   1.429       .  S
N491        O495   1.262       .  A
N491        O496   1.262       .  A
N494        O498   1.262       .  A
N494        O497   1.262       .  A
C499        C500   1.408       .  A
C499        C504   1.397       .  A
C499        H506   1.085       .  S
C500        C501   1.412       .  A
C501        C502   1.405       .  A
C501        N508   1.428       .  S
C502        C503   1.409       .  A
C502        H507   1.084       .  S
C503        C504   1.411       .  A
C504        N505   1.429       .  S
N505        O509   1.262       .  A
N505        O510   1.262       .  A
N508        O512   1.262       .  A
N508        O511   1.262       .  A
O513        C528   1.264       .  A
O513       Al521   1.919       .  S
C514        O524   1.257       .  A
C514        O515   1.256       .  A
C514        C956   1.465       .  S
O515       Al517   1.896       .  S
O516        C518   1.259       .  A
O516       Al517   1.870       .  S
Al517       O525   1.872       .  S
Al517       O527   1.903       .  S
Al517       O526   1.776       .  S
C518        O531   1.265       .  A
C518        C984   1.469       .  S
O519        C529   1.264       .  A
O519       Al521   1.914       .  S
O520        C533   1.258       .  A
O520       Al530   1.883       .  S
Al521       O534   1.913       .  S
Al521       O531   1.932       .  S
Al521       O526   1.790       .  S
O522        C529   1.263       .  A
O522       Al530   1.902       .  S
O523        C532   1.265       .  A
O523       Al530   1.925       .  S
O524       Al530   1.907       .  S
O525        C532   1.260       .  A
O526       Al530   1.783       .  S
O527        C528   1.260       .  A
C528        C970   1.488       .  S
C529       C1012   1.491       .  S
C532        C945   1.464       .  S
C533        O534   1.262       .  A
C533       C1001   1.476       .  S
O535        C550   1.259       .  A
C536        O546   1.259       .  A
C536        O537   1.260       .  A
C536        C886   1.477       .  S
O538        C540   1.262       .  A
Al539       O547   1.864   1_554  S
Al539       O549   1.920   1_554  S
Al539       O548   1.777       .  S
C540        O553   1.271       .  A
C540        C914   1.471       .  S
O541        C551   1.260       .  A
O541       Al543   1.893       .  S
O542        C555   1.260       .  A
O542       Al552   1.894   1_556  S
Al543       O553   1.946       .  S
O544        C551   1.263       .  A
O545        C554   1.268       .  A
O545       Al552   1.931   1_556  S
O547        C554   1.261       .  A
O548       Al552   1.780       .  S
O549        C550   1.259       .  A
C550        C931   1.481       .  S
C551        C998   1.485       .  S
C554        C900   1.466       .  S
C555        O556   1.264       .  A
C555       C1015   1.488       .  S
O557        C572   1.261       .  A
C558        O568   1.257       .  A
C558        O559   1.258       .  A
C558        C844   1.462       .  S
O560        C562   1.255       .  A
Al561       O569   1.857       .  S
Al561       O571   1.902       .  S
Al561       O570   1.778       .  S
C562        O575   1.259       .  A
C562        C987   1.459       .  S
O563        C573   1.261       .  A
O563       Al565   1.884       .  S
O564        C577   1.259       .  A
O564       Al574   1.897       .  S
Al565       O575   1.918       .  S
O566        C573   1.266       .  A
O567        C576   1.263       .  A
O567       Al574   1.920       .  S
O569        C576   1.254       .  A
O570       Al574   1.791       .  S
O571        C572   1.261       .  A
C572        C973   1.470       .  S
C573        C861   1.472       .  S
C576        C830   1.463       .  S
C577        O578   1.262       .  A
C577        C872   1.485       .  S
O579        C594   1.260       .  A
O579       Al587   1.906       .  S
C580        O590   1.260       .  A
C580        O581   1.260       .  A
C580        C802   1.478       .  S
O581       Al583   1.921       .  S
O582        C584   1.258       .  A
O582       Al583   1.867       .  S
Al583       O591   1.872       .  S
Al583       O593   1.921       .  S
Al583       O592   1.783       .  S
C584        O597   1.263       .  A
C584        C917   1.457       .  S
O585        C595   1.260       .  A
O585       Al587   1.893       .  S
O586        C599   1.261       .  A
O586       Al596   1.893       .  S
Al587       O600   1.905       .  S
Al587       O597   1.919       .  S
Al587       O592   1.788       .  S
O588        C595   1.261       .  A
O588       Al596   1.905       .  S
O589        C598   1.264       .  A
O589       Al596   1.921       .  S
O590       Al596   1.911       .  S
O591        C598   1.259       .  A
O592       Al596   1.783       .  S
O593        C594   1.260       .  A
C594        C928   1.474       .  S
C595        C875   1.474       .  S
C598        C816   1.462       .  S
C599        O600   1.261       .  A
C599        C858   1.486       .  S
O601        C616   1.261       .  A
C602        O612   1.257       .  A
C602        O603   1.262       .  A
C602        C959   1.466       .  S
O604        C606   1.260       .  A
Al605       O613   1.865       .  S
Al605       O615   1.920       .  S
Al605       O614   1.773       .  S
C606        O619   1.267       .  A
C606        C760   1.469       .  S
O607        C617   1.262       .  A
O607       Al609   1.892       .  S
O608        C621   1.260       .  A
O608       Al618   1.889       .  S
Al609       O619   1.935       .  S
O610        C617   1.264       .  A
O611        C620   1.265       .  A
O611       Al618   1.934       .  S
O613        C620   1.258       .  A
O614       Al618   1.785       .  S
O615        C616   1.261       .  A
C616        C746   1.473       .  S
C617        C788   1.487       .  S
C620        C942   1.470       .  S
C621        O622   1.266       .  A
C621        C774   1.480       .  S
O623        C638   1.259       .  A
O623       Al631   1.908       .  S
C624        O634   1.261       .  A
C624        O625   1.258       .  A
C624        C735   1.478       .  S
O625       Al627   1.902       .  S
O626        C628   1.255       .  A
O626       Al627   1.854       .  S
Al627       O635   1.860       .  S
Al627       O637   1.916       .  S
Al627       O636   1.775       .  S
C628        O641   1.264       .  A
C628        C903   1.456       .  S
O629        C639   1.260       .  A
O629       Al631   1.887       .  S
O630        C643   1.262       .  A
O630       Al640   1.900       .  S
Al631       O644   1.896       .  S
Al631       O641   1.928       .  S
Al631       O636   1.789       .  S
O632        C639   1.265       .  A
O632       Al640   1.915       .  S
O633        C642   1.266       .  A
O633       Al640   1.940       .  S
O634       Al640   1.914       .  S
O635        C642   1.259       .  A
O636       Al640   1.789       .  S
O637        C638   1.259       .  A
C638        C889   1.475       .  S
C639        C791   1.476       .  S
C642        C718   1.480       .  S
C643        O644   1.259       .  A
C643        C777   1.484       .  S
O645        C660   1.265       .  A
C646        O656   1.259       .  A
C646        O647   1.258       .  A
C646        C805   1.478       .  S
O648        C650   1.261       .  A
Al649       O657   1.867       .  S
Al649       O659   1.896       .  S
Al649       O658   1.771       .  S
C650        O663   1.270       .  A
C650        C721   1.473       .  S
O651        C661   1.262       .  A
O651       Al653   1.901       .  S
O652        C665   1.261       .  A
O652       Al662   1.882       .  S
Al653       O663   1.945       .  S
O654        C661   1.263       .  A
O655        C664   1.269       .  A
O655       Al662   1.942       .  S
O657        C664   1.258       .  A
O658       Al662   1.780       .  S
O659        C660   1.259       .  A
C660        C732   1.498       .  S
C661        C690   1.486       .  S
C664        C819   1.470       .  S
C665        O666   1.267       .  A
C665        C704   1.491       .  S
O667        C682   1.258       .  A
O667       Al675   1.911       .  S
C668        O678   1.258       .  A
C668        O669   1.256       .  A
C668        C847   1.480       .  S
O669       Al671   1.906       .  S
O670        C672   1.261       .  A
O670       Al671   1.865       .  S
Al671       O679   1.869       .  S
Al671       O681   1.918       .  S
Al671       O680   1.781       .  S
C672        O685   1.273       .  A
C672        C763   1.477       .  S
O673        C683   1.259       .  A
O673       Al675   1.895       .  S
O674        C687   1.258       .  A
O674       Al684   1.882       .  S
Al675       O688   1.920       .  S
Al675       O685   1.942       .  S
Al675       O680   1.781       .  S
O676        C683   1.261       .  A
O676       Al684   1.902       .  S
O677        C686   1.269       .  A
O677       Al684   1.929       .  S
O678       Al684   1.905       .  S
O679        C686   1.264       .  A
O680       Al684   1.784       .  S
O681        C682   1.256       .  A
C682        C749   1.480       .  S
C683        C707   1.487       .  S
C686        C833   1.470       .  S
C687        O688   1.264       .  A
C687        C693   1.475       .  S
C689        C690   1.408       .  A
C689        C694   1.402       .  A
C689        H696   1.084       .  S
C690        C691   1.413       .  A
C691        C692   1.400       .  A
C691        N698   1.429       .  S
C692        C693   1.402       .  A
C692        H697   1.085       .  S
C693        C694   1.407       .  A
C694        N695   1.428       .  S
N695        O699   1.262       .  A
N695        O700   1.262       .  A
N698        O702   1.262       .  A
N698        O701   1.262       .  A
C703        C704   1.408       .  A
C703        C708   1.399       .  A
C703        H710   1.084       .  S
C704        C705   1.414       .  A
C705        C706   1.402       .  A
C705        N712   1.428       .  S
C706        C707   1.406       .  A
C706        H711   1.085       .  S
C707        C708   1.412       .  A
C708        N709   1.429       .  S
N709        O713   1.262       .  A
N709        O714   1.262       .  A
N712        O716   1.261       .  A
N712        O715   1.262       .  A
C717        C718   1.402       .  A
C717        C722   1.388       .  A
C717        H724   1.085       .  S
C718        C719   1.415       .  A
C719        C720   1.407       .  A
C719        N726   1.428       .  S
C720        C721   1.404       .  A
C720        H725   1.085       .  S
C721        C722   1.410       .  A
C722        N723   1.430       .  S
N723        O727   1.262       .  A
N726        O730   1.262       .  A
N726        O729   1.262       .  A
C731        C732   1.410       .  A
C731        C736   1.393       .  A
C731        H738   1.084       .  S
C732        C733   1.417       .  A
C733        C734   1.411       .  A
C733        N740   1.426       .  S
C734        C735   1.403       .  A
C734        H739   1.084       .  S
C735        C736   1.407       .  A
C736        N737   1.430       .  S
N737        O741   1.262       .  A
N737        O742   1.262       .  A
N740        O744   1.262       .  A
N740        O743   1.262       .  A
C745        C746   1.401       .  A
C745        C750   1.404       .  A
C745        H752   1.088       .  S
C746        C747   1.409   1_455  A
C747        C748   1.400       .  A
C747        N754   1.428       .  S
C748        C749   1.400       .  A
C748        H753   1.090       .  S
C749        C750   1.414   1_655  A
C750        N751   1.429       .  S
N751        O755   1.262       .  A
N751        O756   1.262       .  A
N754        O758   1.262       .  A
N754        O757   1.262       .  A
C759        C760   1.401   1_655  A
C759        C764   1.391       .  A
C759        H766   1.086       .  S
C760        C761   1.408       .  A
C761        C762   1.401   1_455  A
C761        N768   1.428       .  S
C762        C763   1.405       .  A
C762        H767   1.085       .  S
C763        C764   1.414       .  A
C764        N765   1.431       .  S
N765        O769   1.262       .  A
N765        O770   1.262       .  A
N768        O772   1.261       .  A
N768        O771   1.262       .  A
C773        C774   1.402       .  A
C773        C778   1.395       .  A
C773        H780   1.085       .  S
C774        C775   1.413       .  A
C775        C776   1.401       .  A
C775        N782   1.429       .  S
C776        C777   1.405       .  A
C776        H781   1.084       .  S
C777        C778   1.416       .  A
C778        N779   1.429       .  S
N779        O783   1.262       .  A
N779        O784   1.262       .  A
N782        O786   1.262       .  A
N782        O785   1.262       .  A
C787        C788   1.407       .  A
C787        C792   1.399       .  A
C787        H794   1.083       .  S
C788        C789   1.416       .  A
C789        C790   1.398       .  A
C789        N796   1.429       .  S
C790        C791   1.401       .  A
C790        H795   1.084       .  S
C791        C792   1.410       .  A
C792        N793   1.429       .  S
N793        O797   1.262       .  A
N793        O798   1.262       .  A
N796        O800   1.262       .  A
N796        O799   1.262       .  A
C801        C802   1.402       .  A
C801        C806   1.404       .  A
C801        H808   1.084       .  S
C802        C803   1.411   1_565  A
C803        C804   1.403       .  A
C803        N810   1.429       .  S
C804        C805   1.402       .  A
C804        H809   1.085       .  S
C805        C806   1.411   1_545  A
C806        N807   1.429       .  S
N807        O811   1.262       .  A
N807        O812   1.262       .  A
N810        O814   1.262       .  A
N810        O813   1.262       .  A
C815        C816   1.397   1_545  A
C815        C820   1.391       .  A
C815        H822   1.085       .  S
C816        C817   1.407       .  A
C817        C818   1.401       .  A
C817        N824   1.428       .  S
C818        C819   1.404   1_565  A
C818        H823   1.085       .  S
C819        C820   1.412       .  A
C820        N821   1.430       .  S
N821        O825   1.262       .  A
N821        O826   1.262       .  A
N824        O828   1.262       .  A
N824        O827   1.262       .  A
C829        C830   1.400       .  A
C829        C834   1.399       .  A
C829        H836   1.085       .  S
C830        C831   1.410       .  A
C831        C832   1.388       .  A
C831        N838   1.430       .  S
C832        C833   1.401       .  A
C832        H837   1.085       .  S
C833        C834   1.414       .  A
C834        N835   1.429       .  S
N835        O839   1.261       .  A
N835        O840   1.261       .  A
N838        O842   1.262       .  A
N838        O841   1.262       .  A
C843        C844   1.395       .  A
C843        C848   1.396       .  A
C843        H850   1.086       .  S
C844        C845   1.406       .  A
C845        C846   1.401       .  A
C845        N852   1.429       .  S
C846        C847   1.405       .  A
C846        H851   1.085       .  S
C847        C848   1.417       .  A
C848        N849   1.430       .  S
N849        O853   1.261       .  A
N849        O854   1.262       .  A
N852        O856   1.262       .  A
N852        O855   1.262       .  A
C857        C858   1.406       .  A
C857        C862   1.399       .  A
C857        H864   1.084       .  S
C858        C859   1.417       .  A
C859        C860   1.397       .  A
C859        N866   1.429       .  S
C860        C861   1.399       .  A
C860        H865   1.085       .  S
C861        C862   1.409       .  A
C862        N863   1.429       .  S
N863        O867   1.262       .  A
N863        O868   1.262       .  A
N866        O870   1.262       .  A
N866        O869   1.262       .  A
C871        C872   1.406       .  A
C871        C876   1.394       .  A
C871        H878   1.084       .  S
C872        C873   1.416       .  A
C873        C874   1.403       .  A
C873        N880   1.429       .  S
C874        C875   1.403       .  A
C874        H879   1.084       .  S
C875        C876   1.408       .  A
C876        N877   1.429       .  S
N877        O881   1.262       .  A
N877        O882   1.261       .  A
N880        O884   1.262       .  A
N880        O883   1.262       .  A
C885        C886   1.401       .  A
C885        C890   1.401       .  A
C885        H892   1.083       .  S
C886        C887   1.412   1_565  A
C887        C888   1.404       .  A
C887        N894   1.429       .  S
C888        C889   1.402       .  A
C888        H893   1.085       .  S
C889        C890   1.410   1_545  A
C890        N891   1.429       .  S
N891        O895   1.261       .  A
N891        O896   1.262       .  A
N894        O898   1.262       .  A
N894        O897   1.262       .  A
C899        C900   1.406       .  A
C899        C904   1.402   1_565  A
C899        H906   1.083       .  S
C900        C901   1.410       .  A
C901        C902   1.386       .  A
C901        N908   1.430       .  S
C902        C903   1.397   1_565  A
C902        H907   1.084       .  S
C903        C904   1.405       .  A
C904        N905   1.428       .  S
N905        O909   1.261       .  A
N905        O910   1.262       .  A
N908        O912   1.262       .  A
N908        O911   1.261       .  A
C913        C914   1.407       .  A
C913        C918   1.405       .  A
C913        H920   1.083       .  S
C914        C915   1.410       .  A
C915        C916   1.388       .  A
C915        N922   1.428       .  S
C916        C917   1.394       .  A
C916        H921   1.084       .  S
C917        C918   1.406       .  A
C918        N919   1.429       .  S
N919        O923   1.262       .  A
N919        O924   1.262       .  A
N922        O926   1.262       .  A
N922        O925   1.262       .  A
C927        C928   1.400       .  A
C927        C932   1.402       .  A
C927        H934   1.084       .  S
C928        C929   1.410       .  A
C929        C930   1.404       .  A
C929        N936   1.429       .  S
C930        C931   1.404       .  A
C930        H935   1.084       .  S
C931        C932   1.413       .  A
C932        N933   1.429       .  S
N933        O937   1.262       .  A
N933        O938   1.262       .  A
N936        O940   1.262       .  A
N936        O939   1.262       .  A
C941        C942   1.402       .  A
C941        C946   1.390       .  A
C941        H948   1.086       .  S
C942        C943   1.412       .  A
C943        C944   1.402       .  A
C943        N950   1.428       .  S
C944        C945   1.402       .  A
C944        H949   1.085       .  S
C945        C946   1.407       .  A
C946        N947   1.430       .  S
N947        O951   1.261       .  A
N947        O952   1.261       .  A
N950        O954   1.262       .  A
N950        O953   1.262       .  A
C955        C956   1.403       .  A
C955        C960   1.398       .  A
C955        H962   1.086       .  S
C956        C957   1.406       .  A
C957        C958   1.399       .  A
C957        N964   1.429       .  S
C958        C959   1.402       .  A
C958        H963   1.085       .  S
C959        C960   1.407       .  A
C960        N961   1.430       .  S
N961        O965   1.262       .  A
N961        O966   1.262       .  A
N964        O968   1.262       .  A
N964        O967   1.261       .  A
C969        C970   1.409       .  A
C969        C974   1.408   1_455  A
C969        H976   1.083       .  S
C970        C971   1.418   1_455  A
C971        C972   1.393       .  A
C971        N978   1.429   1_655  S
C972        C973   1.396       .  A
C972        H977   1.085       .  S
C973        C974   1.408       .  A
C974        N975   1.429       .  S
N975        O979   1.261       .  A
N975        O980   1.262       .  A
N978        O982   1.261       .  A
N978        O981   1.262   1_455  A
C983        C984   1.400       .  A
C983        C988   1.389       .  A
C983        H990   1.082       .  S
C984        C985   1.413   1_455  A
C985        C986   1.404       .  A
C985        N992   1.428       .  S
C986        C987   1.400       .  A
C986        H991   1.084       .  S
C987        C988   1.405   1_655  A
C988        N989   1.430       .  S
N989        O993   1.262       .  A
N992        O996   1.262       .  A
N992        O995   1.262       .  A
C997        C998   1.408       .  A
C997       C1002   1.397       .  A
C997       H1004   1.084       .  S
C998        C999   1.415       .  A
C999       C1000   1.399       .  A
C999       N1006   1.429       .  S
C1000      C1001   1.403       .  A
C1000      H1005   1.085       .  S
C1001      C1002   1.408       .  A
C1002      N1003   1.429       .  S
N1003      O1007   1.262       .  A
N1003      O1008   1.262       .  A
N1006      O1010   1.262       .  A
N1006      O1009   1.262       .  A
C1011      C1012   1.408       .  A
C1011      C1016   1.398       .  A
C1011      H1018   1.085       .  S
C1012      C1013   1.414       .  A
C1013      C1014   1.405       .  A
C1013      N1020   1.428       .  S
C1014      C1015   1.408       .  A
C1014      H1019   1.085       .  S
C1015      C1016   1.412       .  A
C1016      N1017   1.429       .  S
N1017      O1021   1.262       .  A
N1017      O1022   1.262       .  A
N1020      O1024   1.262       .  A
N1020      O1023   1.262       .  A
