geometry optimzed in LAMMPS
_audit_creation_date              2020-12-01 
_audit_creation_method            'lammps2cif' 
_symmetry_space_group_name_H-M    'P1' 
_symmetry_Int_Tables_number       1 
_symmetry_cell_setting            triclinic 
loop_ 
_symmetry_equiv_pos_as_xyz 
  x,y,z 
_cell_length_a                    58.1963424 
_cell_length_b                    58.129448912126925 
_cell_length_c                    39.50691953647507 
_cell_angle_alpha                 90.01193567464595 
_cell_angle_beta                  90.05547076655641 
_cell_angle_gamma                 90.02979953983711 
loop_ 
_atom_site_label 
_atom_site_type_symbol 
_atom_site_fract_x 
_atom_site_fract_y 
_atom_site_fract_z 
_atom_site_charge 
O1          O  0.47039386  0.84117961  0.03202911    -0.73000
O2          O  0.51885264  0.84175651  0.96090487    -0.73900
O3          O  0.47020025  0.84163142  0.96042312    -0.62600
O4          O  0.51908881  0.84100788  0.03250131    -0.71000
O5          O  0.51902397  0.80293850  0.03191434    -0.70500
O6          O  0.47074009  0.80351021  0.95938175    -0.61800
O7          O  0.51936322  0.80367548  0.96005128    -0.74300
O8          O  0.47013650  0.80309193  0.03130521    -0.73100
Cu9        Cu  0.49462673  0.84269625  0.99650080     1.04600
Cu10       Cu  0.49479355  0.80196612  0.99566906     1.04300
C11         C  0.46244672  0.82210942  0.04295675     0.93200
C12         C  0.52692090  0.82296658  0.94919755     0.92400
C13         C  0.46290949  0.82259054  0.94825293     0.84500
C14         C  0.52687536  0.82186626  0.04362888     0.90800
C15         C  0.65061876  0.82619214  0.77063409     0.80200
N16         N  0.66723018  0.80984249  0.76931712    -0.78100
C17         C  0.68235075  0.80910885  0.74319623     0.82700
N18         N  0.68070564  0.82503934  0.71818530    -0.78000
C19         C  0.66422048  0.84157730  0.71905606     0.82700
N20         N  0.64923174  0.84196251  0.74533647    -0.79800
C21         C  0.32323180  0.84683882  0.72316749     0.80200
N22         N  0.34000720  0.84423579  0.74671377    -0.78100
C23         C  0.33813835  0.82813612  0.77149778     0.82700
N24         N  0.31915665  0.81447443  0.77240654    -0.78000
C25         C  0.30235950  0.81684833  0.74872580     0.82700
N26         N  0.30447156  0.83307208  0.72431554    -0.79800
C27         C  0.65289954  0.82617342  0.21960200     0.80200
N28         N  0.67017777  0.81039958  0.22007943    -0.78100
C29         C  0.68710471  0.81154213  0.24384764     0.82700
N30         N  0.68683090  0.82899681  0.26673098    -0.78000
C31         C  0.66967375  0.84478031  0.26646699     0.82700
N32         N  0.65260808  0.84319632  0.24317951    -0.79800
C33         C  0.33109347  0.84303201  0.27991826     0.80200
N34         N  0.31479672  0.82635043  0.28107883    -0.78100
C35         C  0.31429363  0.80926119  0.25773439     0.82700
N36         N  0.33015700  0.80906487  0.23265301    -0.78000
C37         C  0.34668552  0.82547153  0.23129098     0.82700
N38         N  0.34712854  0.84242388  0.25494931    -0.79800
O39         O  0.69487579  0.01925342  0.53420155    -0.73000
O40         O  0.69203598  0.97439899  0.45730741    -0.73900
O41         O  0.69590807  0.02297959  0.46236571    -0.62600
O42         O  0.69088424  0.97096594  0.52876386    -0.71000
O43         O  0.65296689  0.97391004  0.52765892    -0.74500
O44         O  0.65794763  0.02610762  0.46217190    -0.61800
O45         O  0.65411749  0.97757232  0.45606919    -0.74300
O46         O  0.65692662  0.02227611  0.53359552    -0.73100
Cu47       Cu  0.69474576  0.99681856  0.49563919     1.04600
Cu48       Cu  0.65417796  0.00008859  0.49478093     1.04300
C49         C  0.67637874  0.02765373  0.54642686     0.93200
C50         C  0.67264444  0.96869820  0.44462438     0.92400
C51         C  0.67762744  0.03283747  0.45183740     0.84500
C52         C  0.67114548  0.96423161  0.53888057     0.90800
O53         O  0.31147621  0.97854072  0.53669459    -0.73000
O54         O  0.30794181  0.02618778  0.46502403    -0.73900
O55         O  0.30911826  0.97777473  0.46602258    -0.62600
O56         O  0.31096642  0.02739579  0.53669304    -0.71000
O57         O  0.34888879  0.02874243  0.53249145    -0.70500
O58         O  0.34714956  0.97812936  0.46405921    -0.61800
O59         O  0.34584226  0.02682855  0.46043603    -0.74300
O60         O  0.34961941  0.97980062  0.53547525    -0.73100
Cu61       Cu  0.30859927  0.00254973  0.50130911     1.04600
Cu62       Cu  0.34924598  0.00347803  0.49807907     1.04300
C63         C  0.33092238  0.97121053  0.54685563     0.93200
C64         C  0.32602556  0.03358150  0.45043958     0.92400
C65         C  0.32794205  0.96985584  0.45418044     0.84500
C66         C  0.33024405  0.03601609  0.54573445     0.90800
O67         O  0.47688592  0.18702738  0.04034234    -0.73000
O68         O  0.52788262  0.18325788  0.97115193    -0.73900
O69         O  0.47956257  0.18649549  0.96852023    -0.62600
O70         O  0.52558123  0.18443125  0.04263110    -0.71000
O71         O  0.52406643  0.14633748  0.04388188    -0.70500
O72         O  0.47691156  0.14836940  0.96946600    -0.61800
O73         O  0.52585238  0.14518335  0.97226795    -0.74300
O74         O  0.47496709  0.14893475  0.04082860    -0.73100
Cu75       Cu  0.50255470  0.18660103  0.00570377     1.04600
Cu76       Cu  0.50036335  0.14585324  0.00669350     1.04300
C77         C  0.46762040  0.16843816  0.05109237     0.93200
C78         C  0.53492980  0.16362142  0.96080475     0.92400
C79         C  0.47090427  0.16784737  0.95732012     0.84500
C80         C  0.53250579  0.16529016  0.05466793     0.90800
C81         C  0.33637362  0.16120996  0.72306890     0.80200
N82         N  0.35282491  0.16121065  0.74745287    -0.78100
C83         C  0.35322160  0.17758040  0.77193258     0.82700
N84         N  0.33693294  0.19421371  0.77190237    -0.78000
C85         C  0.32028882  0.19441829  0.74791914     0.82700
N86         N  0.31993889  0.17785715  0.72363511    -0.79800
C87         C  0.66197437  0.15923842  0.78526036     0.80200
N88         N  0.67870341  0.17557751  0.78660029    -0.78100
C89         C  0.69618781  0.17576496  0.76380404     0.82700
N90         N  0.69675169  0.15941078  0.73925486    -0.78000
C91         C  0.68026529  0.14290126  0.73743628     0.82700
N92         N  0.66296968  0.14297679  0.76057919    -0.79800
C93         C  0.65807537  0.17638062  0.22967664     0.80200
N94         N  0.65946616  0.15944402  0.25318273    -0.78100
C95         C  0.67579120  0.15971342  0.27761023     0.82700
N96         N  0.69121029  0.17720106  0.27820835    -0.78000
C97         C  0.68997800  0.19446633  0.25514393     0.82700
N98         N  0.67337294  0.19405277  0.23090003    -0.79800
C99         C  0.31583080  0.15062395  0.26316380     0.80200
N100        N  0.30017558  0.16794802  0.26300857    -0.78100
C101        C  0.30172799  0.18531370  0.24008973     0.82700
N102        N  0.31938031  0.18542515  0.21752414    -0.78000
C103        C  0.33532244  0.16831216  0.21751190     0.82700
N104        N  0.33326742  0.15099829  0.24036300    -0.79800
O105        O  0.02118748  0.64587879  0.53519758    -0.73000
O106        O  0.97242105  0.64303367  0.46411251    -0.73900
O107        O  0.02141846  0.64523896  0.46372491    -0.62600
O108        O  0.97219753  0.64433195  0.53569675    -0.71000
O109        O  0.97094046  0.68239908  0.53386943    -0.70500
O110        O  0.01993002  0.68334524  0.46374469    -0.61800
O111        O  0.97162689  0.68119925  0.46239246    -0.74300
O112        O  0.01948504  0.68400470  0.53507405    -0.73100
Cu113      Cu  0.99684578  0.64324663  0.49977245     1.04600
Cu114      Cu  0.99542569  0.68402255  0.49878426     1.04300
C115        C  0.02821058  0.66530887  0.54617508     0.93200
C116        C  0.96442524  0.66169752  0.45185587     0.92400
C117        C  0.02844773  0.66465216  0.45245039     0.84500
C118        C  0.96365195  0.66339693  0.54591151     0.90800
O119        O  0.98009880  0.30167382  0.46808338    -0.73000
O120        O  0.02765620  0.30328343  0.54264824    -0.73900
O121        O  0.97907646  0.29961499  0.54013800    -0.62600
O122        O  0.02891149  0.30458115  0.47069466    -0.71000
O123        O  0.02682688  0.34258004  0.47228272    -0.70500
O124        O  0.97626054  0.33762206  0.54159495    -0.61800
O125        O  0.02489171  0.34130658  0.54378296    -0.74300
O126        O  0.97827777  0.33969746  0.47005563    -0.73100
Cu127      Cu  0.00401714  0.30094322  0.50532552     1.04600
Cu128      Cu  0.00145532  0.34158728  0.50701937     1.04300
C129        C  0.97172823  0.32065139  0.45720483     0.93200
C130        C  0.03381088  0.32273142  0.55486112     0.92400
C131        C  0.96977658  0.31779329  0.55196584     0.84500
C132        C  0.03586597  0.32421097  0.46040954     0.90800
O133        O  0.15858392  0.52882027  0.96208166    -0.73000
O134        O  0.15586250  0.48231905  0.03749820    -0.73900
O135        O  0.15796512  0.53094683  0.03406738    -0.62600
O136        O  0.15635043  0.48026088  0.96498653    -0.71000
O137        O  0.19439873  0.47819249  0.96695711    -0.70500
O138        O  0.19598046  0.52978379  0.03458815    -0.61800
O139        O  0.19389465  0.48146775  0.03860562    -0.74300
O140        O  0.19658305  0.52683798  0.96284290    -0.73100
Cu141      Cu  0.15584378  0.50562904  0.99960811     1.04600
Cu142      Cu  0.19650390  0.50400416  0.00071731     1.04300
C143        C  0.17808983  0.53510917  0.95041540     0.93200
C144        C  0.17458045  0.47488058  0.05048815     0.92400
C145        C  0.17715514  0.53832242  0.04550287     0.84500
C146        C  0.17518909  0.47127821  0.95497469     0.90800
C147        C  0.15782568  0.66776915  0.71527535     0.80200
N148        N  0.16127402  0.65002808  0.73706590    -0.78100
C149        C  0.17804887  0.65107524  0.76088685     0.82700
N150        N  0.19134090  0.67018989  0.76290330    -0.78000
C151        C  0.18825095  0.68808250  0.74136979     0.82700
N152        N  0.17141562  0.68671921  0.71764863    -0.79800
C153        C  0.16180143  0.33056297  0.72680009     0.80200
N154        N  0.16118242  0.34609704  0.75251735    -0.78100
C155        C  0.17825148  0.34688128  0.77594774     0.82700
N156        N  0.19594343  0.33175963  0.77374111    -0.78000
C157        C  0.19681380  0.31596842  0.74843309     0.82700
N158        N  0.17965952  0.31554950  0.72508402    -0.79800
C159        C  0.15652991  0.33391233  0.27685865     0.80200
N160        N  0.15862487  0.35238753  0.25598243    -0.78100
C161        C  0.17515188  0.35292210  0.23162390     0.82700
N162        N  0.18962870  0.33467430  0.22846727    -0.78000
C163        C  0.18762403  0.31603503  0.24898308     0.82700
N164        N  0.17110360  0.31587342  0.27314027    -0.79800
C165        C  0.17261614  0.65916935  0.22839674     0.80200
N166        N  0.15550996  0.65843030  0.25180409    -0.78100
C167        C  0.15340382  0.67522980  0.27560189     0.82700
N168        N  0.16882167  0.69276445  0.27584723    -0.78000
C169        C  0.18590981  0.69376621  0.25256219     0.82700
N170        N  0.18763189  0.67701513  0.22882634    -0.79800
O171        O  0.80604411  0.52195316  0.96090334    -0.73000
O172        O  0.81017966  0.47373149  0.03264357    -0.73900
O173        O  0.80667956  0.52205314  0.03306110    -0.62600
O174        O  0.80994476  0.47355119  0.96126846    -0.71000
O175        O  0.84791267  0.47599401  0.96150896    -0.70500
O176        O  0.84457305  0.52539560  0.03190748    -0.61800
O177        O  0.84816835  0.47721642  0.03367362    -0.74300
O178        O  0.84399446  0.52465281  0.95971201    -0.73100
Cu179      Cu  0.80691320  0.49779997  0.99693607     1.04600
Cu180      Cu  0.84750310  0.50097604  0.99660104     1.04300
C181        C  0.82429956  0.53068597  0.94840447     0.93200
C182        C  0.82968921  0.46804344  0.04479744     0.92400
C183        C  0.82519043  0.53097671  0.04456840     0.84500
C184        C  0.82946412  0.46681617  0.95028027     0.90800
C185        C  0.83363486  0.33426566  0.78518932     0.80200
N186        N  0.84977631  0.33373366  0.76035938    -0.78100
C187        C  0.85095180  0.31578008  0.73836372     0.82700
N188        N  0.83554862  0.29831522  0.74138200    -0.78000
C189        C  0.81918196  0.29865587  0.76586319     0.82700
N190        N  0.81826607  0.31673628  0.78761720    -0.79800
C191        C  0.81518929  0.64780551  0.76120731     0.80200
N192        N  0.83266746  0.64884550  0.73861666    -0.78100
C193        C  0.83418972  0.66622802  0.71586037     0.82700
N194        N  0.81796694  0.68299704  0.71613139    -0.78000
C195        C  0.80033826  0.68231447  0.73863933     0.82700
N196        N  0.79897677  0.66463823  0.76108499    -0.79800
C197        C  0.82122448  0.65052444  0.22817009     0.80200
N198        N  0.83814534  0.65055124  0.25169832    -0.78100
C199        C  0.83986201  0.66763911  0.27491593     0.82700
N200        N  0.82417641  0.68503400  0.27449029    -0.78000
C201        C  0.80689989  0.68514638  0.25118602     0.82700
N202        N  0.80563626  0.66785683  0.22811994    -0.79800
C203        C  0.85027248  0.32843164  0.27438175     0.80200
N204        N  0.83260706  0.31323218  0.27565607    -0.78100
C205        C  0.81502959  0.31419554  0.25321287     0.82700
N206        N  0.81526546  0.33073282  0.22898680    -0.78000
C207        C  0.83278466  0.34613557  0.22705843     0.82700
N208        N  0.85040904  0.34482789  0.24974314    -0.79800
C209        C  0.83895860  0.57593667  0.88215471    -0.27600
C210        C  0.81778472  0.57848923  0.86569360     0.02000
C211        C  0.79885377  0.56537496  0.87628127     0.30100
C212        C  0.80123666  0.54995079  0.90324491    -0.19400
C213        C  0.82238688  0.54746242  0.92021870    -0.28800
C214        C  0.84133909  0.56075066  0.90940197     0.44100
C215        C  0.81563167  0.59538195  0.83804137     0.05300
O216        O  0.77820342  0.56698889  0.85966338    -0.57300
H217        H  0.78646991  0.53978785  0.91066292     0.18200
O218        O  0.86223987  0.55920048  0.92529056    -0.64100
H219        H  0.85360912  0.58609478  0.87419133     0.16700
C220        C  0.80256075  0.61549491  0.84232288     0.28900
C221        C  0.80192858  0.63206715  0.81668048    -0.24900
C222        C  0.81454787  0.62906339  0.78666777    -0.24200
C223        C  0.82731465  0.60856503  0.78227446     0.40400
C224        C  0.82774568  0.59196241  0.80788894    -0.26700
O225        O  0.79088483  0.61940537  0.87190782    -0.58600
H226        H  0.79212797  0.64764756  0.82084906     0.16000
O227        O  0.83911874  0.60433815  0.75287445    -0.60000
H228        H  0.83776948  0.57643932  0.80435507     0.14500
H229        H  0.86174527  0.57089626  0.94355109     0.46300
H230        H  0.80227233  0.62657913  0.88734080     0.41700
H231        H  0.85544940  0.60756865  0.75828360     0.45100
H232        H  0.76834343  0.57661574  0.87442575     0.36600
C233        C  0.85159613  0.42245361  0.88710996    -0.27600
C234        C  0.83113102  0.41136889  0.87783905     0.02000
C235        C  0.81024633  0.41880493  0.89189758     0.30100
C236        C  0.81000765  0.43695461  0.91509756    -0.19400
C237        C  0.83047586  0.44803855  0.92482902    -0.28800
C238        C  0.85144799  0.44056426  0.91051078     0.44100
C239        C  0.83173269  0.39178120  0.85394148     0.05300
O240        O  0.78994156  0.40840563  0.88309666    -0.57300
H241        H  0.79365910  0.44223234  0.92562458     0.18200
O242        O  0.87188512  0.45087294  0.91887506    -0.64100
H243        H  0.86781283  0.41678828  0.87655298     0.16700
C244        C  0.83980632  0.39458953  0.82066604     0.28900
C245        C  0.84031427  0.37575543  0.79854627    -0.24900
C246        C  0.83275471  0.35392047  0.80910931    -0.24200
C247        C  0.82460011  0.35121654  0.84251956     0.40400
C248        C  0.82422558  0.37004518  0.86461933    -0.26700
O249        O  0.84637546  0.41587069  0.80919553    -0.58600
H250        H  0.84637870  0.37832983  0.77290472     0.16000
O251        O  0.81792834  0.33006369  0.85435002    -0.60000
H252        H  0.81823830  0.36763025  0.89034235     0.14500
H253        H  0.87833216  0.44136915  0.93744164     0.46300
H254        H  0.86338817  0.41595459  0.81063980     0.41700
H255        H  0.80091470  0.33005170  0.85286005     0.45100
H256        H  0.78394572  0.41753000  0.86381035     0.36600
C257        C  0.80773308  0.61588113  0.14901194    -0.27600
C258        C  0.81974749  0.59546490  0.15549985     0.02000
C259        C  0.83151708  0.59287255  0.18634192     0.30100
C260        C  0.83160435  0.61082762  0.20985910    -0.19400
C261        C  0.81990510  0.63154142  0.20323051    -0.28800
C262        C  0.80766452  0.63382346  0.17255440     0.44100
C263        C  0.82106200  0.57774811  0.12881744     0.05300
O264        O  0.84319705  0.57296707  0.19353300    -0.57300
H265        H  0.84094658  0.60848629  0.23333955     0.18200
O266        O  0.79664676  0.65391929  0.16438421    -0.64100
H267        H  0.79891284  0.61819361  0.12508280     0.16700
C268        C  0.80102831  0.56834185  0.11452562     0.28900
C269        C  0.80262404  0.55336324  0.08695974    -0.24900
C270        C  0.82412560  0.54729460  0.07338072    -0.24200
C271        C  0.84424798  0.55622910  0.08860512     0.40400
C272        C  0.84255574  0.57140607  0.11592298    -0.26700
O273        O  0.77979521  0.57381889  0.12722320    -0.58600
H274        H  0.78691455  0.54648745  0.07625514     0.16000
O275        O  0.86567588  0.55062838  0.07676835    -0.60000
H276        H  0.85810887  0.57865720  0.12662851     0.14500
H277        H  0.78025026  0.65119637  0.16991484     0.46300
H278        H  0.77668268  0.56206026  0.14481776     0.41700
H279        H  0.87066442  0.53734446  0.09069868     0.45100
H280        H  0.83216277  0.56331394  0.20633227     0.36600
C281        C  0.84518156  0.43645538  0.12556502    -0.27600
C282        C  0.83123051  0.41674360  0.12306632     0.02000
C283        C  0.81672251  0.41429463  0.09460725     0.30100
C284        C  0.81630015  0.43126490  0.06956790    -0.19400
C285        C  0.83062911  0.45058567  0.07175548    -0.28800
C286        C  0.84508173  0.45320629  0.10007319     0.44100
C287        C  0.83184584  0.39891169  0.15014498     0.05300
O288        O  0.80309000  0.39522429  0.09068277    -0.57300
H289        H  0.80504606  0.42907173  0.04792854     0.18200
O290        O  0.85876569  0.47229769  0.10346676    -0.64100
H291        H  0.85602075  0.43902168  0.14754638     0.16700
C292        C  0.85284510  0.39031091  0.16279398     0.28900
C293        C  0.85293906  0.37351218  0.18824479    -0.24900
C294        C  0.83228414  0.36443247  0.20085438    -0.24200
C295        C  0.81127505  0.37294088  0.18801190     0.40400
C296        C  0.81121005  0.39016463  0.16329877    -0.26700
O297        O  0.87341328  0.39782480  0.14997201    -0.58600
H298        H  0.86926663  0.36712520  0.19748460     0.16000
O299        O  0.79061988  0.36472400  0.19956453    -0.60000
H300        H  0.79486479  0.39679068  0.15451249     0.14500
H301        H  0.84880558  0.48414049  0.11399217     0.46300
H302        H  0.87634361  0.38797672  0.12993869     0.41700
H303        H  0.78644934  0.37487459  0.21877474     0.45100
H304        H  0.81312972  0.38349884  0.08005444     0.36600
C305        C  0.17268978  0.59403668  0.80735990    -0.27600
C306        C  0.18158300  0.59988534  0.83924088     0.02000
C307        C  0.19082485  0.62199871  0.84428137     0.30100
C308        C  0.19037355  0.63809162  0.81807133    -0.19400
C309        C  0.18046045  0.63269263  0.78659234    -0.28800
C310        C  0.17198363  0.61024263  0.78114186     0.44100
C311        C  0.18066351  0.58305977  0.86733949     0.05300
O312        O  0.19970421  0.62831780  0.87508838    -0.57300
H313        H  0.19704586  0.65517117  0.82297789     0.18200
O314        O  0.16352734  0.60378644  0.75013112    -0.64100
H315        H  0.16608107  0.57687453  0.80285802     0.16700
C316        C  0.15974603  0.57277795  0.87692948     0.28900
C317        C  0.15915541  0.55726364  0.90397078    -0.24900
C318        C  0.17922691  0.55185547  0.92213752    -0.24200
C319        C  0.20012454  0.56245615  0.91269112     0.40400
C320        C  0.20071872  0.57770611  0.88535340    -0.26700
O321        O  0.13971540  0.57798567  0.86027946    -0.58600
H322        H  0.14288212  0.54945119  0.91068172     0.16000
O323        O  0.22011796  0.55816024  0.92996527    -0.60000
H324        H  0.21695114  0.58544689  0.87823004     0.14500
H325        H  0.14677843  0.60164679  0.75350364     0.46300
H326        H  0.13331142  0.59145693  0.87243341     0.41700
H327        H  0.22054424  0.56975801  0.94837176     0.45100
H328        H  0.18653283  0.63473413  0.88789229     0.36600
C329        C  0.19722399  0.39070046  0.84157611    -0.27600
C330        C  0.17608268  0.39874348  0.85404634     0.02000
C331        C  0.15560294  0.38922096  0.84082177     0.30100
C332        C  0.15655017  0.37248589  0.81534286    -0.19400
C333        C  0.17772397  0.36432696  0.80327330    -0.28800
C334        C  0.19817583  0.37342232  0.81699032     0.44100
C335        C  0.17567139  0.41716886  0.88039833     0.05300
O336        O  0.13452514  0.39596720  0.85272806    -0.57300
H337        H  0.14061680  0.36558817  0.80538222     0.18200
O338        O  0.21926828  0.36594244  0.80611632    -0.64100
H339        H  0.21319989  0.39809523  0.85045631     0.16700
C340        C  0.19067085  0.41655893  0.90853626     0.28900
C341        C  0.19035571  0.43436585  0.93243912    -0.24900
C342        C  0.17490103  0.45273115  0.92940193    -0.24200
C343        C  0.15966287  0.45325330  0.90171041     0.40400
C344        C  0.16044426  0.43584699  0.87719002    -0.26700
O345        O  0.20496811  0.39812198  0.91375022    -0.58600
H346        H  0.20198130  0.43356671  0.95385251     0.16000
O347        O  0.14471925  0.47126925  0.89748779    -0.60000
H348        H  0.14924690  0.43715711  0.85536740     0.14500
H349        H  0.22285018  0.37545631  0.78596889     0.46300
H350        H  0.22078936  0.40415533  0.91074457     0.41700
H351        H  0.12979714  0.46567352  0.90637916     0.45100
H352        H  0.13203621  0.38681599  0.87358471     0.36600
C353        C  0.15826951  0.58350383  0.10952158    -0.27600
C354        C  0.17923272  0.58947813  0.12455332     0.02000
C355        C  0.19958432  0.57903693  0.11318475     0.30100
C356        C  0.19870160  0.56260117  0.08723684    -0.19400
C357        C  0.17765682  0.55647089  0.07203574    -0.28800
C358        C  0.15733631  0.56734299  0.08334203     0.44100
C359        C  0.17933807  0.60667334  0.15209691     0.05300
O360        O  0.22021984  0.58404342  0.12831737    -0.57300
H361        H  0.21455005  0.55444868  0.07934867     0.18200
O362        O  0.13637230  0.56214933  0.06941938    -0.64100
H363        H  0.14250827  0.59156242  0.11803276     0.16700
C364        C  0.18953764  0.62837666  0.14757446     0.28900
C365        C  0.18748972  0.64515868  0.17278551    -0.24900
C366        C  0.17520548  0.64068999  0.20276229    -0.24200
C367        C  0.16574194  0.61856372  0.20767527     0.40400
C368        C  0.16764006  0.60189435  0.18228379    -0.26700
O369        O  0.20099735  0.63356037  0.11822441    -0.58600
H370        H  0.19508908  0.66191367  0.16841935     0.16000
O371        O  0.15463616  0.61294459  0.23713982    -0.60000
H372        H  0.15984777  0.58515668  0.18607265     0.14500
H373        H  0.13379653  0.57404016  0.05182004     0.46300
H374        H  0.18903544  0.63934485  0.10249435     0.41700
H375        H  0.16693479  0.60787936  0.25284724     0.45100
H376        H  0.22844156  0.59409126  0.11205142     0.36600
C377        C  0.15469947  0.43318580  0.11914746    -0.27600
C378        C  0.17561377  0.42804557  0.13517204     0.02000
C379        C  0.19582392  0.43888456  0.12400072     0.30100
C380        C  0.19509719  0.45404954  0.09661347    -0.19400
C381        C  0.17431360  0.45887313  0.07981207    -0.28800
C382        C  0.15391844  0.44838980  0.09160367     0.44100
C383        C  0.17658536  0.40986548  0.16140324     0.05300
O384        O  0.21648922  0.43449722  0.13942071    -0.57300
H385        H  0.21099861  0.46200519  0.08849233     0.18200
O386        O  0.13319833  0.45253479  0.07621452    -0.64100
H387        H  0.13903286  0.42476754  0.12727043     0.16700
C388        C  0.16347712  0.41118746  0.19120817     0.28900
C389        C  0.16367430  0.39285876  0.21430437    -0.24900
C390        C  0.17681955  0.37292823  0.20812530    -0.24200
C391        C  0.19074120  0.37224493  0.17879327     0.40400
C392        C  0.19034424  0.39048076  0.15574798    -0.26700
O393        O  0.15087575  0.43053372  0.19830923    -0.58600
H394        H  0.15326273  0.39421867  0.23692636     0.16000
O395        O  0.20415055  0.35350635  0.17147490    -0.60000
H396        H  0.20051069  0.38924017  0.13284948     0.14500
H397        H  0.13175325  0.44050327  0.05853178     0.46300
H398        H  0.13473442  0.42639633  0.19300508     0.41700
H399        H  0.21964120  0.35742025  0.18024806     0.45100
H400        H  0.21708871  0.44510996  0.15906034     0.36600
C401        C  0.12574637  0.31532974  0.64917859    -0.27600
C402        C  0.10619660  0.32884173  0.65447533     0.02000
C403        C  0.10508255  0.34324550  0.68295912     0.30100
C404        C  0.12326374  0.34361843  0.70617864    -0.19400
C405        C  0.14298348  0.32997503  0.70122296    -0.28800
C406        C  0.14415614  0.31598538  0.67192726     0.44100
C407        C  0.08707917  0.32764414  0.62998997     0.05300
O408        O  0.08589277  0.35631273  0.68897036    -0.57300
H409        H  0.12173513  0.35454019  0.72827424     0.18200
O410        O  0.16308992  0.30278744  0.66509335    -0.64100
H411        H  0.12681982  0.30436062  0.62704716     0.16700
C412        C  0.08176393  0.34652675  0.60924009     0.28900
C413        C  0.06413828  0.34474710  0.58533129    -0.24900
C414        C  0.05171106  0.32414424  0.58142303    -0.24200
C415        C  0.05684979  0.30535270  0.60270661     0.40400
C416        C  0.07456588  0.30715337  0.62656632    -0.26700
O417        O  0.09399082  0.36663967  0.61172317    -0.58600
H418        H  0.06055645  0.35942054  0.56926684     0.16000
O419        O  0.04462143  0.28522947  0.60062632    -0.60000
H420        H  0.07851666  0.29254555  0.64258066     0.14500
H421        H  0.17317052  0.31267425  0.65103155     0.46300
H422        H  0.10672347  0.36507149  0.59521892     0.41700
H423        H  0.03120163  0.28745621  0.61573085     0.45100
H424        H  0.09015663  0.37216796  0.68214757     0.36600
C425        C  0.93260017  0.29584255  0.62438539    -0.27600
C426        C  0.91716326  0.31415944  0.62846866     0.02000
C427        C  0.91851083  0.33312388  0.60640089     0.30100
C428        C  0.93562631  0.33401944  0.58160556    -0.19400
C429        C  0.95141168  0.31593810  0.57782091    -0.28800
C430        C  0.94952601  0.29652275  0.59917231     0.44100
C431        C  0.90050534  0.31403516  0.65685351     0.05300
O432        O  0.90322726  0.35098413  0.60904516    -0.57300
H433        H  0.93648124  0.34892011  0.56518577     0.18200
O434        O  0.96488757  0.27869735  0.59690864    -0.64100
H435        H  0.93193636  0.28123774  0.64139125     0.16700
C436        C  0.88429895  0.29628230  0.66066945     0.28900
C437        C  0.86842376  0.29704968  0.68730563    -0.24900
C438        C  0.86849360  0.31528471  0.71085180    -0.24200
C439        C  0.88520937  0.33279966  0.70723420     0.40400
C440        C  0.90086575  0.33207533  0.68039722    -0.26700
O441        O  0.88315516  0.27868057  0.63759157    -0.58600
H442        H  0.85587943  0.28334237  0.68920556     0.16000
O443        O  0.88629868  0.35096778  0.72932699    -0.60000
H444        H  0.91346510  0.34571189  0.67799869     0.14500
H445        H  0.95681466  0.26656399  0.58384790     0.46300
H446        H  0.89053293  0.26534478  0.64886788     0.41700
H447        H  0.89800783  0.34652562  0.74636010     0.45100
H448        H  0.88993380  0.34643948  0.59481207     0.36600
C449        C  0.07998804  0.30788470  0.39327534    -0.27600
C450        C  0.08876335  0.32946442  0.38409081     0.02000
C451        C  0.08042055  0.34925323  0.40053259     0.30100
C452        C  0.06332611  0.34730161  0.42532118    -0.19400
C453        C  0.05436915  0.32568894  0.43449834    -0.28800
C454        C  0.06315110  0.30582928  0.41835627     0.44100
C455        C  0.10635894  0.33106115  0.35701141     0.05300
O456        O  0.08890958  0.37059850  0.39261854    -0.57300
H457        H  0.05711701  0.36282086  0.43741538     0.18200
O458        O  0.05500528  0.28431778  0.42607706    -0.64100
H459        H  0.08600221  0.29250048  0.38059152     0.16700
C460        C  0.12671652  0.31805607  0.35873783     0.28900
C461        C  0.14281060  0.31930353  0.33253818    -0.24900
C462        C  0.13902374  0.33336490  0.30412309    -0.24200
C463        C  0.11856750  0.34635282  0.30236330     0.40400
C464        C  0.10249985  0.34517450  0.32871833    -0.26700
O465        O  0.13143292  0.30476256  0.38659154    -0.58600
H466        H  0.15846597  0.30933323  0.33473536     0.16000
O467        O  0.11385093  0.35993300  0.27483701    -0.60000
H468        H  0.08674088  0.35500331  0.32676035     0.14500
H469        H  0.06618669  0.27789947  0.44251135     0.46300
H470        H  0.12943608  0.28862177  0.37897144     0.41700
H471        H  0.10581086  0.34970433  0.25859305     0.45100
H472        H  0.10226698  0.37283176  0.40787205     0.36600
C473        C  0.92723619  0.30239671  0.39150404    -0.27600
C474        C  0.92204444  0.32357182  0.37613400     0.02000
C475        C  0.93292191  0.34363155  0.38793162     0.30100
C476        C  0.94899535  0.34227426  0.41420498    -0.19400
C477        C  0.95453940  0.32107735  0.42938013    -0.28800
C478        C  0.94333980  0.30101108  0.41784762     0.44100
C479        C  0.90412719  0.32471048  0.34943709     0.05300
O480        O  0.92688784  0.36479888  0.37535909    -0.57300
H481        H  0.95702314  0.35804136  0.42282892     0.18200
O482        O  0.94727224  0.28012462  0.43291212    -0.64100
H483        H  0.91865358  0.28685492  0.38312777     0.16700
C484        C  0.90832062  0.33492284  0.31764129     0.28900
C485        C  0.89065728  0.33634179  0.29353091    -0.24900
C486        C  0.86874196  0.32728768  0.30036069    -0.24200
C487        C  0.86474343  0.31698134  0.33227207     0.40400
C488        C  0.88233469  0.31565929  0.35622174    -0.26700
O489        O  0.92967487  0.34330188  0.30968923    -0.58600
H490        H  0.89424995  0.34419100  0.26923579     0.16000
O491        O  0.84356552  0.30848751  0.34083136    -0.60000
H492        H  0.87876904  0.30790452  0.38060646     0.14500
H493        H  0.95866424  0.27232100  0.41822251     0.46300
H494        H  0.93869264  0.32969211  0.30246786     0.41700
H495        H  0.83491656  0.32185603  0.34979554     0.45100
H496        H  0.94063037  0.37047658  0.36308716     0.36600
C497        C  0.06767027  0.68461299  0.61710643    -0.27600
C498        C  0.08391620  0.66680229  0.61726209     0.02000
C499        C  0.08165828  0.64850751  0.59417807     0.30100
C500        C  0.06321483  0.64809678  0.57157552    -0.19400
C501        C  0.04702550  0.66600688  0.57114726    -0.28800
C502        C  0.04941953  0.68443349  0.59406442     0.44100
C503        C  0.10286821  0.66714695  0.64209727     0.05300
O504        O  0.09748859  0.63103472  0.59336424    -0.57300
H505        H  0.06183495  0.63392117  0.55386982     0.18200
O506        O  0.03351488  0.70182353  0.59513039    -0.64100
H507        H  0.06899051  0.69856919  0.63518450     0.16700
C508        C  0.11807092  0.68588351  0.64402643     0.28900
C509        C  0.13598966  0.68567138  0.66760965    -0.24900
C510        C  0.13889284  0.66706069  0.69003007    -0.24200
C511        C  0.12330034  0.64841680  0.68818751     0.40400
C512        C  0.10564044  0.64854988  0.66423502    -0.26700
O513        O  0.11603986  0.70408507  0.62211868    -0.58600
H514        H  0.14759077  0.70024011  0.66825183     0.16000
O515        O  0.12504394  0.62988591  0.70947391    -0.60000
H516        H  0.09382956  0.63414329  0.66322589     0.14500
H517        H  0.04052490  0.71469679  0.58230335     0.46300
H518        H  0.10912234  0.71667948  0.63563961     0.41700
H519        H  0.11491716  0.63355616  0.72891167     0.45100
H520        H  0.10986879  0.63657525  0.57817908     0.36600
C521        C  0.06644151  0.68617788  0.38113724    -0.27600
C522        C  0.08207435  0.66801319  0.37763134     0.02000
C523        C  0.08011246  0.64867993  0.39893534     0.30100
C524        C  0.06241296  0.64760754  0.42296867    -0.19400
C525        C  0.04663223  0.66574327  0.42631834    -0.28800
C526        C  0.04882114  0.68516053  0.40506730     0.44100
C527        C  0.10034504  0.66966090  0.35165687     0.05300
O528        O  0.09611719  0.63137130  0.39758519    -0.57300
H529        H  0.06133936  0.63276099  0.43946924     0.18200
O530        O  0.03375214  0.70324090  0.40722850    -0.64100
H531        H  0.06775026  0.70115077  0.36490965     0.16700
C532        C  0.10253049  0.65295658  0.32611231     0.28900
C533        C  0.11975671  0.65504647  0.30162880    -0.24900
C534        C  0.13494463  0.67391247  0.30166975    -0.24200
C535        C  0.13226565  0.69097205  0.32696556     0.40400
C536        C  0.11508397  0.68872722  0.35151996    -0.26700
O537        O  0.08763752  0.63470138  0.32445990    -0.58600
H538        H  0.12108044  0.64179937  0.28245418     0.16000
O539        O  0.14603595  0.71011231  0.32783345    -0.60000
H540        H  0.11334706  0.70192470  0.37073130     0.14500
H541        H  0.02069641  0.69899590  0.39232998     0.46300
H542        H  0.07436552  0.64032337  0.31105553     0.41700
H543        H  0.15732357  0.70710826  0.34611918     0.45100
H544        H  0.08781625  0.61775874  0.38862828     0.36600
C545        C  0.92059503  0.68388200  0.61162914    -0.27600
C546        C  0.90830761  0.66366049  0.61822346     0.02000
C547        C  0.91423284  0.64329554  0.60101449     0.30100
C548        C  0.93248408  0.64335604  0.57788776    -0.19400
C549        C  0.94494839  0.66359401  0.57137133    -0.28800
C550        C  0.93876971  0.68400586  0.58856247     0.44100
C551        C  0.88935160  0.66423499  0.64314276     0.05300
O552        O  0.90148567  0.62363618  0.60531450    -0.57300
H553        H  0.93655644  0.62759835  0.56453611     0.18200
O554        O  0.95024481  0.70426910  0.58296768    -0.64100
H555        H  0.91619229  0.69966690  0.62470439     0.16700
C556        C  0.88939852  0.64958895  0.67144760     0.28900
C557        C  0.87147097  0.65061988  0.69485145    -0.24900
C558        C  0.85329767  0.66638795  0.69093987    -0.24200
C559        C  0.85362354  0.68148690  0.66289842     0.40400
C560        C  0.87156537  0.68032002  0.63939090    -0.26700
O561        O  0.90707812  0.63442009  0.67679682    -0.58600
H562        H  0.87198420  0.63904298  0.71630722     0.16000
O563        O  0.83659288  0.69744909  0.65804024    -0.60000
H564        H  0.87149379  0.69191749  0.61791772     0.14500
H565        H  0.96179113  0.70530097  0.60137750     0.46300
H566        H  0.91908093  0.64340969  0.68876433     0.41700
H567        H  0.82503845  0.68967892  0.64353635     0.45100
H568        H  0.91188103  0.61250855  0.61662515     0.36600
C569        C  0.91238189  0.64473842  0.39979057    -0.27600
C570        C  0.91297564  0.66146548  0.37414574     0.02000
C571        C  0.93112461  0.67747611  0.37350232     0.30100
C572        C  0.94770312  0.67733319  0.39904899    -0.19400
C573        C  0.94693704  0.66089240  0.42496654    -0.28800
C574        C  0.92937242  0.64419996  0.42490929     0.44100
C575        C  0.89416015  0.66281733  0.34898425     0.05300
O576        O  0.93275814  0.69339669  0.34800381    -0.57300
H577        H  0.96136475  0.69000330  0.39841206     0.18200
O578        O  0.92787770  0.62820900  0.45034999    -0.64100
H579        H  0.89840897  0.63243925  0.40083750     0.16700
C580        C  0.88803405  0.64369207  0.32919017     0.28900
C581        C  0.87041668  0.64563390  0.30526829    -0.24900
C582        C  0.85840660  0.66647675  0.30075703    -0.24200
C583        C  0.86455950  0.68558512  0.32084124     0.40400
C584        C  0.88227752  0.68362296  0.34464472    -0.26700
O585        O  0.89984415  0.62334806  0.33199347    -0.58600
H586        H  0.86618963  0.63062580  0.29024109     0.16000
O587        O  0.85401593  0.70648558  0.31669752    -0.60000
H588        H  0.88676306  0.69847158  0.35986904     0.14500
H589        H  0.93513314  0.61411994  0.44109179     0.46300
H590        H  0.88937760  0.61277916  0.34426636     0.41700
H591        H  0.84207802  0.70713231  0.33456463     0.45100
H592        H  0.94212807  0.68586660  0.33021979     0.36600
C593        C  0.26252660  0.23400283  0.21180975    -0.27600
C594        C  0.25268083  0.24081064  0.24260639     0.02000
C595        C  0.25882003  0.22913641  0.27250505     0.30100
C596        C  0.27456330  0.21093915  0.27127971    -0.19400
C597        C  0.28471185  0.20429102  0.24050278    -0.28800
C598        C  0.27849572  0.21600343  0.21059557     0.44100
C599        C  0.23590032  0.25998308  0.24323288     0.05300
O600        O  0.24971563  0.23555015  0.30310019    -0.57300
H601        H  0.27917101  0.20229196  0.29461164     0.18200
O602        O  0.28711314  0.20933024  0.17982389    -0.64100
H603        H  0.25763259  0.24254578  0.18852431     0.16700
C604        C  0.24192876  0.28204303  0.23152722     0.28900
C605        C  0.22592642  0.30002006  0.23288575    -0.24900
C606        C  0.20374083  0.29637989  0.24585672    -0.24200
C607        C  0.19756556  0.27405354  0.25671024     0.40400
C608        C  0.21363306  0.25616275  0.25553096    -0.26700
O609        O  0.26380242  0.28645267  0.22035813    -0.58600
H610        H  0.23113508  0.31699794  0.22457117     0.16000
O611        O  0.17586417  0.26943317  0.26840297    -0.60000
H612        H  0.20864776  0.23916675  0.26408090     0.14500
H613        H  0.29961432  0.22040962  0.17479208     0.46300
H614        H  0.26267709  0.28674090  0.19531327     0.41700
H615        H  0.16678427  0.26542435  0.24797179     0.45100
H616        H  0.25962738  0.24830561  0.31119507     0.36600
C617        C  0.77458294  0.26713609  0.28421835    -0.27600
C618        C  0.75918812  0.26544007  0.25707953     0.02000
C619        C  0.76173552  0.28026391  0.22919138     0.30100
C620        C  0.77971565  0.29623683  0.22852830    -0.19400
C621        C  0.79568064  0.29753735  0.25524771    -0.28800
C622        C  0.79284142  0.28271836  0.28335740     0.44100
C623        C  0.74126760  0.24738323  0.25741548     0.05300
O624        O  0.74707360  0.27891094  0.20206180    -0.57300
H625        H  0.78138869  0.30728344  0.20659334     0.18200
O626        O  0.80753500  0.28339221  0.31045424    -0.64100
H627        H  0.77260674  0.25609178  0.30611672     0.16700
C628        C  0.74729143  0.22415109  0.26223670     0.28900
C629        C  0.73032396  0.20716395  0.26154264    -0.24900
C630        C  0.70725555  0.21293635  0.25589038    -0.24200
C631        C  0.70112580  0.23616813  0.25150980     0.40400
C632        C  0.71810820  0.25323132  0.25233182    -0.26700
O633        O  0.76986384  0.21779669  0.26593392    -0.58600
H634        H  0.73529444  0.18933079  0.26476531     0.16000
O635        O  0.67860592  0.24238781  0.24695309    -0.60000
H636        H  0.71319527  0.27107525  0.24912552     0.14500
H637        H  0.81870898  0.27080343  0.30642430     0.46300
H638        H  0.77166522  0.21386738  0.29022438     0.41700
H639        H  0.67252547  0.24502438  0.27007827     0.45100
H640        H  0.75347920  0.26662156  0.18743555     0.36600
C641        C  0.73682284  0.22233993  0.79620664    -0.27600
C642        C  0.74943083  0.22755708  0.76695267     0.02000
C643        C  0.74459652  0.21556221  0.73680143     0.30100
C644        C  0.72737099  0.19873215  0.73621467    -0.19400
C645        C  0.71446494  0.19364604  0.76538685    -0.28800
C646        C  0.71942171  0.20567369  0.79561039     0.44100
C647        C  0.76748482  0.24560514  0.76806008     0.05300
O648        O  0.75644963  0.22033083  0.70763382    -0.57300
H649        H  0.72390929  0.18987212  0.71262812     0.18200
O650        O  0.70805636  0.20066999  0.82509944    -0.64100
H651        H  0.74062435  0.23110342  0.81976138     0.16700
C652        C  0.76231279  0.26814558  0.77867742     0.28900
C653        C  0.77942809  0.28510632  0.77859038    -0.24900
C654        C  0.80185530  0.28001422  0.76781461    -0.24200
C655        C  0.80713512  0.25729481  0.75793091     0.40400
C656        C  0.79001842  0.24034851  0.75806660    -0.26700
O657        O  0.74026736  0.27405514  0.78732989    -0.58600
H658        H  0.77492794  0.30247418  0.78600904     0.16000
O659        O  0.82896558  0.25140937  0.74816896    -0.60000
H660        H  0.79435722  0.22299957  0.75034730     0.14500
H661        H  0.69608027  0.21271300  0.82725326     0.46300
H662        H  0.74024149  0.27494806  0.81239721     0.41700
H663        H  0.83703846  0.24721382  0.76941165     0.45100
H664        H  0.74834424  0.23360514  0.69733510     0.36600
C665        C  0.29233106  0.25297669  0.75161632    -0.27600
C666        C  0.26893682  0.24716760  0.75019717     0.02000
C667        C  0.26256744  0.22375449  0.74868165     0.30100
C668        C  0.27946260  0.20669091  0.74715693    -0.19400
C669        C  0.30277740  0.21258622  0.74847401    -0.28800
C670        C  0.30918749  0.23586146  0.75119660     0.44100
C671        C  0.25129462  0.26554016  0.74907646     0.05300
O672        O  0.23987164  0.21737397  0.74896107    -0.57300
H673        H  0.27435115  0.18878533  0.74575024     0.18200
O674        O  0.33190457  0.24207613  0.75280095    -0.64100
H675        H  0.29758943  0.27084225  0.75240273     0.16700
C676        C  0.25087747  0.28341799  0.77309002     0.28900
C677        C  0.23332928  0.29987184  0.77210791    -0.24900
C678        C  0.21599281  0.29902182  0.74722047    -0.24200
C679        C  0.21705496  0.28149166  0.72243704     0.40400
C680        C  0.23460294  0.26510953  0.72349534    -0.26700
O681        O  0.26683763  0.28427995  0.79864978    -0.58600
H682        H  0.23318779  0.31311753  0.79138953     0.16000
O683        O  0.20115530  0.28007197  0.69692456    -0.60000
H684        H  0.23508131  0.25184785  0.70422451     0.14500
H685        H  0.33701030  0.24317210  0.72890875     0.46300
H686        H  0.27713797  0.29728925  0.79281380     0.41700
H687        H  0.18966232  0.26867992  0.70484882     0.45100
H688        H  0.23559589  0.21665876  0.77323754     0.36600
C689        C  0.60897695  0.14215588  0.83698988    -0.27600
C690        C  0.60737411  0.16055933  0.85985208     0.02000
C691        C  0.62379295  0.17831760  0.85820614     0.30100
C692        C  0.64132423  0.17756796  0.83392815    -0.19400
C693        C  0.64291521  0.15932007  0.81061014    -0.28800
C694        C  0.62633946  0.14150053  0.81236407     0.44100
C695        C  0.58854509  0.16110036  0.88532805     0.05300
O696        O  0.62345506  0.19595244  0.88131247    -0.57300
H697        H  0.65375200  0.19143729  0.83355956     0.18200
O698        O  0.62707393  0.12309025  0.79068088    -0.64100
H699        H  0.59650467  0.12832441  0.83796900     0.16700
C700        C  0.57344266  0.17998863  0.88732480     0.28900
C701        C  0.55638852  0.18067195  0.91227096    -0.24900
C702        C  0.55348830  0.16236498  0.93506266    -0.24200
C703        C  0.56825809  0.14314850  0.93256825     0.40400
C704        C  0.58557163  0.14263290  0.90784306    -0.26700
O705        O  0.57494157  0.19774780  0.86459614    -0.58600
H706        H  0.54504518  0.19542810  0.91329706     0.16000
O707        O  0.56619971  0.12493405  0.95442852    -0.60000
H708        H  0.59695407  0.12791142  0.90657668     0.14500
H709        H  0.61670857  0.12724898  0.77170830     0.46300
H710        H  0.56551888  0.19285528  0.84494122     0.41700
H711        H  0.57564298  0.12914145  0.97440768     0.45100
H712        H  0.61957183  0.20996897  0.86817911     0.36600
C713        C  0.41721248  0.15813267  0.90565751    -0.27600
C714        C  0.42133830  0.17247923  0.87777610     0.02000
C715        C  0.44180287  0.18531483  0.87620687     0.30100
C716        C  0.45782928  0.18371769  0.90245118    -0.19400
C717        C  0.45387431  0.16904466  0.93002859    -0.28800
C718        C  0.43341404  0.15623973  0.93162457     0.44100
C719        C  0.40415370  0.17386823  0.85046271     0.05300
O720        O  0.44632257  0.19929195  0.84904178    -0.57300
H721        H  0.47354571  0.19368343  0.90102987     0.18200
O722        O  0.42858387  0.14284180  0.95929386    -0.64100
H723        H  0.40129195  0.14853417  0.90739312     0.16700
C724        C  0.39799192  0.15414898  0.83201337     0.28900
C725        C  0.38163127  0.15571485  0.80625081    -0.24900
C726        C  0.37083865  0.17675681  0.79889481    -0.24200
C727        C  0.37694084  0.19650353  0.81772750     0.40400
C728        C  0.39365972  0.19496314  0.84307017    -0.26700
O729        O  0.40843221  0.13342907  0.83832163    -0.58600
H730        H  0.37719401  0.14028627  0.79231756     0.16000
O731        O  0.36726941  0.21752016  0.81093297    -0.60000
H732        H  0.39829062  0.21023885  0.85725788     0.14500
H733        H  0.43254861  0.12693208  0.95240408     0.46300
H734        H  0.39724096  0.12457810  0.85205240     0.41700
H735        H  0.35493994  0.21941650  0.82801950     0.45100
H736        H  0.45530568  0.18963532  0.83313642     0.36600
C737        C  0.58280961  0.14800247  0.11057185    -0.27600
C738        C  0.58693316  0.16866792  0.12795286     0.02000
C739        C  0.57271601  0.18775060  0.12190535     0.30100
C740        C  0.55486597  0.18615297  0.09847879    -0.19400
C741        C  0.55068970  0.16557936  0.08079912    -0.28800
C742        C  0.56477565  0.14631106  0.08719378     0.44100
C743        C  0.60565266  0.17015347  0.15310747     0.05300
O744        O  0.57608004  0.20806221  0.13889264    -0.57300
H745        H  0.54423391  0.20116637  0.09416931     0.18200
O746        O  0.56180392  0.12614501  0.06969423    -0.64100
H747        H  0.59377323  0.13322888  0.11487864     0.16700
C748        C  0.60585052  0.15554675  0.18136096     0.28900
C749        C  0.62283125  0.15806134  0.20603350    -0.24900
C750        C  0.64012101  0.17490822  0.20299963    -0.24200
C751        C  0.63999612  0.18941620  0.17430323     0.40400
C752        C  0.62278972  0.18699223  0.14974886    -0.26700
O753        O  0.58883407  0.13949598  0.18590199    -0.58600
H754        H  0.62222877  0.14676352  0.22778646     0.16000
O755        O  0.65640800  0.20608834  0.16995049    -0.60000
H756        H  0.62279518  0.19832226  0.12796888     0.14500
H757        H  0.55219531  0.11635525  0.08459242     0.46300
H758        H  0.59584234  0.12457704  0.17944990     0.41700
H759        H  0.66868023  0.19866245  0.15641764     0.45100
H760        H  0.56798115  0.20614785  0.16078556     0.36600
C761        C  0.41289475  0.15306647  0.09854860    -0.27600
C762        C  0.41148522  0.17088542  0.12237503     0.02000
C763        C  0.42852543  0.18810323  0.12257681     0.30100
C764        C  0.44662638  0.18731124  0.09907125    -0.19400
C765        C  0.44812970  0.16936019  0.07531250    -0.28800
C766        C  0.43089058  0.15226014  0.07508723     0.44100
C767        C  0.39238212  0.17082196  0.14726592     0.05300
O768        O  0.42825118  0.20504691  0.14675116    -0.57300
H769        H  0.45978347  0.20049169  0.09992228     0.18200
O770        O  0.43128555  0.13477734  0.05177479    -0.64100
H771        H  0.39984610  0.13976184  0.09800623     0.16700
C772        C  0.37603763  0.18863636  0.14822809     0.28900
C773        C  0.35767328  0.18762349  0.17114339    -0.24900
C774        C  0.35509139  0.16887044  0.19342193    -0.24200
C775        C  0.37168120  0.15104647  0.19234258     0.40400
C776        C  0.38991704  0.15209749  0.16928920    -0.26700
O777        O  0.37760619  0.20692012  0.12642556    -0.58600
H778        H  0.34534778  0.20157609  0.17121202     0.16000
O779        O  0.37015619  0.13223251  0.21316550    -0.60000
H780        H  0.40229148  0.13817774  0.16864993     0.14500
H781        H  0.42209418  0.14048718  0.03237047     0.46300
H782        H  0.36874230  0.20225169  0.10610216     0.41700
H783        H  0.37996360  0.13594560  0.23297364     0.45100
H784        H  0.42335764  0.21919635  0.13472427     0.36600
C785        C  0.35108519  0.10772514  0.67139583    -0.27600
C786        C  0.33507379  0.10918051  0.64501677     0.02000
C787        C  0.31992249  0.12800307  0.64380831     0.30100
C788        C  0.32057511  0.14477783  0.66921055    -0.19400
C789        C  0.33636518  0.14325777  0.69614952    -0.28800
C790        C  0.35186132  0.12446647  0.69679870     0.44100
C791        C  0.33391649  0.09062978  0.61941454     0.05300
O792        O  0.30440001  0.13016445  0.61785434    -0.57300
H793        H  0.30864232  0.15903115  0.66767680     0.18200
O794        O  0.36788335  0.12212727  0.72204423    -0.64100
H795        H  0.36279267  0.09326166  0.67267631     0.16700
C796        C  0.35312207  0.08501756  0.59950197     0.28900
C797        C  0.35164947  0.06724697  0.57568011    -0.24900
C798        C  0.33118428  0.05464809  0.57142636    -0.24200
C799        C  0.31202528  0.06020733  0.59176638     0.40400
C800        C  0.31352547  0.07805855  0.61546411    -0.26700
O801        O  0.37312215  0.09738744  0.60229052    -0.58600
H802        H  0.36658597  0.06348195  0.56030635     0.16000
O803        O  0.29198138  0.04787958  0.58955363    -0.60000
H804        H  0.29875437  0.08195166  0.63113048     0.14500
H805        H  0.36047726  0.11222436  0.73931875     0.46300
H806        H  0.38367461  0.08751872  0.61562535     0.41700
H807        H  0.28173480  0.05720082  0.57491196     0.45100
H808        H  0.31310546  0.13735365  0.59905554     0.36600
C809        C  0.30027989  0.06949013  0.37937971    -0.27600
C810        C  0.31978386  0.08034990  0.36628597     0.02000
C811        C  0.34145311  0.07568999  0.38055853     0.30100
C812        C  0.34332353  0.06053630  0.40801924    -0.19400
C813        C  0.32375334  0.04967969  0.42144320    -0.28800
C814        C  0.30210116  0.05409562  0.40639740     0.44100
C815        C  0.31716455  0.09732413  0.33872798     0.05300
O816        O  0.36071037  0.08673301  0.36885129    -0.57300
H817        H  0.36011519  0.05747547  0.41897826     0.18200
O818        O  0.28249882  0.04355086  0.41782570    -0.64100
H819        H  0.28353325  0.07291660  0.36847055     0.16700
C820        C  0.32757315  0.09389680  0.30705580     0.28900
C821        C  0.32647372  0.11113611  0.28242624    -0.24900
C822        C  0.31473261  0.13188144  0.28864997    -0.24200
C823        C  0.30320688  0.13466537  0.31985714     0.40400
C824        C  0.30446448  0.11741996  0.34450822    -0.26700
O825        O  0.33905214  0.07385095  0.30006772    -0.58600
H826        H  0.33503663  0.10829667  0.25845319     0.16000
O827        O  0.29127208  0.15439798  0.32709216    -0.60000
H828        H  0.29610086  0.12006535  0.36869565     0.14500
H829        H  0.28132952  0.02908860  0.40460206     0.46300
H830        H  0.32705541  0.06298321  0.29214787     0.41700
H831        H  0.30260105  0.16478094  0.33799071     0.45100
H832        H  0.36897146  0.07514194  0.35504448     0.36600
C833        C  0.69739888  0.06020315  0.62413055    -0.27600
C834        C  0.67869028  0.07468646  0.63058945     0.02000
C835        C  0.65917653  0.07354821  0.60965470     0.30100
C836        C  0.65863904  0.05816978  0.58239154    -0.19400
C837        C  0.67741753  0.04367625  0.57560474    -0.28800
C838        C  0.69688071  0.04472386  0.59697417     0.44100
C839        C  0.67988811  0.09136019  0.65874825     0.05300
O840        O  0.64095485  0.08808163  0.61486313    -0.57300
H841        H  0.64356968  0.05782253  0.56627562     0.18200
O842        O  0.71515930  0.03017454  0.59232746    -0.64100
H843        H  0.71242146  0.06083985  0.64033422     0.16700
C844        C  0.66551440  0.08921083  0.68710167     0.28900
C845        C  0.66598183  0.10595486  0.71253776    -0.24900
C846        C  0.68093342  0.12497124  0.71048916    -0.24200
C847        C  0.69599638  0.12651570  0.68243941     0.40400
C848        C  0.69528659  0.10982505  0.65689054    -0.26700
O849        O  0.65086209  0.07083652  0.69007843    -0.58600
H850        H  0.65452821  0.10396921  0.73392469     0.16000
O851        O  0.71091072  0.14462876  0.67892851    -0.60000
H852        H  0.70652500  0.11153129  0.63517461     0.14500
H853        H  0.72688540  0.03944561  0.58027776     0.46300
H854        H  0.65979070  0.05889529  0.70226188     0.41700
H855        H  0.72574641  0.13904678  0.68816530     0.45100
H856        H  0.62930504  0.07872890  0.62694889     0.36600
C857        C  0.65945196  0.10869774  0.33272514    -0.27600
C858        C  0.67892789  0.10645836  0.35337665     0.02000
C859        C  0.69760619  0.12152092  0.34850693     0.30100
C860        C  0.69647317  0.13857279  0.32355306    -0.19400
C861        C  0.67674589  0.14113252  0.30329417    -0.28800
C862        C  0.65810921  0.12590162  0.30818479     0.44100
C863        C  0.67928716  0.08840523  0.37990998     0.05300
O864        O  0.71691746  0.11996550  0.36829451    -0.57300
H865        H  0.71107975  0.14991300  0.32027918     0.18200
O866        O  0.63808767  0.12811985  0.29013049    -0.64100
H867        H  0.64507499  0.09702658  0.33562707     0.16700
C868        C  0.66060686  0.08572286  0.40223286     0.28900
C869        C  0.66051133  0.06770967  0.42564781    -0.24900
C870        C  0.67894624  0.05219796  0.42760608    -0.24200
C871        C  0.69795371  0.05526400  0.40592407     0.40400
C872        C  0.69794527  0.07317287  0.38221036    -0.26700
O873        O  0.64273330  0.10113354  0.40211775    -0.58600
H874        H  0.64592976  0.06598466  0.44249455     0.16000
O875        O  0.71642316  0.04064317  0.40717105    -0.60000
H876        H  0.71234549  0.07480918  0.36502138     0.14500
H877        H  0.63903612  0.11638615  0.27195679     0.46300
H878        H  0.62927872  0.09249992  0.39333396     0.41700
H879        H  0.71318601  0.02865132  0.38995451     0.45100
H880        H  0.71389480  0.13009048  0.38799533     0.36600
C881        C  0.22908655  0.73690951  0.28582058    -0.27600
C882        C  0.23919143  0.74460899  0.25570995     0.02000
C883        C  0.23097527  0.73634019  0.22447624     0.30100
C884        C  0.21331873  0.72005507  0.22376001    -0.19400
C885        C  0.20332112  0.71215501  0.25393717    -0.28800
C886        C  0.21110107  0.72099597  0.28512966     0.44100
C887        C  0.25862216  0.76087811  0.25723316     0.05300
O888        O  0.24020455  0.74395215  0.19456499    -0.57300
H889        H  0.20743340  0.71356592  0.19953751     0.18200
O890        O  0.20231390  0.71308431  0.31514984    -0.64100
H891        H  0.23550449  0.74287069  0.31003640     0.16700
C892        C  0.25653030  0.78198870  0.27431166     0.28900
C893        C  0.27497815  0.79734170  0.27482407    -0.24900
C894        C  0.29574252  0.79193893  0.25854964    -0.24200
C895        C  0.29805872  0.77038204  0.24246466     0.40400
C896        C  0.27951910  0.75511646  0.24176928    -0.26700
O897        O  0.23612172  0.78824976  0.28902645    -0.58600
H898        H  0.27274084  0.81379465  0.28727744     0.16000
O899        O  0.31829237  0.76399703  0.22737441    -0.60000
H900        H  0.28148182  0.73865116  0.22923183     0.14500
H901        H  0.19302478  0.72598354  0.32421735     0.46300
H902        H  0.23859391  0.78649243  0.31373608     0.41700
H903        H  0.32755245  0.75689747  0.24569107     0.45100
H904        H  0.23151323  0.75811381  0.18891176     0.36600
C905        C  0.34290457  0.89933815  0.32614000    -0.27600
C906        C  0.32912479  0.89675161  0.35498393     0.02000
C907        C  0.31594504  0.87666623  0.35889544     0.30100
C908        C  0.31680159  0.85944877  0.33428815    -0.19400
C909        C  0.33081788  0.86176734  0.30544761    -0.28800
C910        C  0.34389379  0.88207960  0.30150603     0.44100
C911        C  0.32872860  0.91508851  0.38088303     0.05300
O912        O  0.30232156  0.87358360  0.38685043    -0.57300
H913        H  0.30654292  0.84411481  0.33809651     0.18200
O914        O  0.35708765  0.88568246  0.27325356    -0.64100
H915        H  0.35283804  0.91492444  0.32258667     0.16700
C916        C  0.34920744  0.92273410  0.39607688     0.28900
C917        C  0.34864698  0.94056421  0.41974014    -0.24900
C918        C  0.32774856  0.95092237  0.42906359    -0.24200
C919        C  0.30715416  0.94289282  0.41420850     0.40400
C920        C  0.30779689  0.92513668  0.39032754    -0.26700
O921        O  0.36986628  0.91275077  0.38813343    -0.58600
H922        H  0.36469395  0.94614955  0.43097757     0.16000
O923        O  0.28629038  0.95218128  0.42274223    -0.60000
H924        H  0.29189965  0.91939555  0.37878046     0.14500
H925        H  0.37296071  0.88158544  0.28012482     0.46300
H926        H  0.37152695  0.89973713  0.40417703     0.41700
H927        H  0.28365789  0.96468204  0.40610648     0.45100
H928        H  0.31268412  0.86727225  0.40449065     0.36600
C929        C  0.73485081  0.77204856  0.27566092    -0.27600
C930        C  0.73936630  0.75865428  0.24687498     0.02000
C931        C  0.72680245  0.76297336  0.21699459     0.30100
C932        C  0.70992797  0.78015413  0.21639124    -0.19400
C933        C  0.70537789  0.79362739  0.24517904    -0.28800
C934        C  0.71812154  0.78937017  0.27504161     0.44100
C935        C  0.75679877  0.73992356  0.24847136     0.05300
O936        O  0.73097980  0.75060296  0.18808226    -0.57300
H937        H  0.70053561  0.78307288  0.19309732     0.18200
O938        O  0.71417624  0.80170495  0.30405405    -0.64100
H939        H  0.74404888  0.76878410  0.29902575     0.16700
C940        C  0.77918605  0.74393694  0.26091773     0.28900
C941        C  0.79519314  0.72592448  0.26233694    -0.24900
C942        C  0.78943212  0.70377336  0.25086890    -0.24200
C943        C  0.76694524  0.69976077  0.23869287     0.40400
C944        C  0.75092051  0.71768356  0.23768263    -0.26700
O945        O  0.78575517  0.76549598  0.27120574    -0.58600
H946        H  0.81234650  0.72945673  0.27167657     0.16000
O947        O  0.76026606  0.67831625  0.22802994    -0.60000
H948        H  0.73369163  0.71410325  0.22869035     0.14500
H949        H  0.70225250  0.79291689  0.31648293     0.46300
H950        H  0.79030184  0.77363452  0.25018950     0.41700
H951        H  0.75498758  0.67027755  0.24876012     0.45100
H952        H  0.74420749  0.75837646  0.17715464     0.36600
C953        C  0.65147855  0.93052234  0.37261373    -0.27600
C954        C  0.67078615  0.91661640  0.36697704     0.02000
C955        C  0.69073857  0.92020650  0.38638381     0.30100
C956        C  0.69119225  0.93745990  0.41104499    -0.19400
C957        C  0.67180533  0.95130408  0.41712464    -0.28800
C958        C  0.65187135  0.94780257  0.39732960     0.44100
C959        C  0.67001239  0.89838275  0.34083280     0.05300
O960        O  0.70978004  0.90665956  0.38182450    -0.57300
H961        H  0.70668470  0.93966036  0.42592318     0.18200
O962        O  0.63265881  0.96110237  0.40183545    -0.64100
H963        H  0.63608540  0.92807643  0.35758529     0.16700
C964        C  0.65386885  0.88036627  0.34276330     0.28900
C965        C  0.65370888  0.86306558  0.31806551    -0.24900
C966        C  0.66958624  0.86347128  0.29144579    -0.24200
C967        C  0.68559037  0.88152525  0.28930392     0.40400
C968        C  0.68575305  0.89883636  0.31393135    -0.26700
O969        O  0.63898885  0.87895012  0.36959129    -0.58600
H970        H  0.64146900  0.84907551  0.32003885     0.16000
O971        O  0.70113878  0.88234413  0.26326579    -0.60000
H972        H  0.69815758  0.91268360  0.31202902     0.14500
H973        H  0.63451893  0.97419800  0.38598795     0.46300
H974        H  0.62402542  0.88448973  0.36077028     0.41700
H975        H  0.69343733  0.89129735  0.24514905     0.45100
H976        H  0.70725072  0.89303255  0.39645656     0.36600
C977        C  0.25724589  0.77520728  0.71753147    -0.27600
C978        C  0.24650609  0.76875266  0.74785188     0.02000
C979        C  0.25328108  0.77944181  0.77835810     0.30100
C980        C  0.27150425  0.79515312  0.77845325    -0.19400
C981        C  0.28255570  0.80110652  0.74818471    -0.28800
C982        C  0.27486966  0.79150228  0.71745544     0.44100
C983        C  0.23016845  0.74918468  0.74770551     0.05300
O984        O  0.24249988  0.77432080  0.80828437    -0.57300
H985        H  0.27698395  0.80274697  0.80218139     0.18200
O986        O  0.28560435  0.79664059  0.68749407    -0.64100
H987        H  0.25264350  0.76690249  0.69392804     0.16700
C988        C  0.21232635  0.74757503  0.72369832     0.28900
C989        C  0.19884711  0.72767612  0.72197573    -0.24900
C990        C  0.20264038  0.70912834  0.74421223    -0.24200
C991        C  0.22022249  0.71110606  0.76878580     0.40400
C992        C  0.23374477  0.73091053  0.77022658    -0.26700
O993        O  0.20805004  0.76524352  0.70156342    -0.58600
H994        H  0.18543222  0.72682296  0.70299225     0.16000
O995        O  0.22452467  0.69385705  0.79160044    -0.60000
H996        H  0.24763663  0.73162997  0.78847320     0.14500
H997        H  0.27586830  0.80858152  0.67673116     0.46300
H998        H  0.19729241  0.77559866  0.71365553     0.41700
H999        H  0.23698942  0.68455572  0.78132656     0.45100
H1000       H  0.22846814  0.78399573  0.80850006     0.36600
C1001       C  0.34800848  0.88852906  0.65902074    -0.27600
C1002       C  0.32800055  0.89875780  0.64612402     0.02000
C1003       C  0.30642101  0.89145810  0.65826571     0.30100
C1004       C  0.30514926  0.87433357  0.68298980    -0.19400
C1005       C  0.32519600  0.86449488  0.69648678    -0.28800
C1006       C  0.34675817  0.87162275  0.68408869     0.44100
C1007       C  0.32980239  0.91699512  0.62007488     0.05300
O1008       O  0.28646696  0.90117673  0.64652893    -0.57300
H1009       H  0.28839820  0.86910734  0.69216123     0.18200
O1010       O  0.36672586  0.86198504  0.69588058    -0.64100
H1011       H  0.36470268  0.89351381  0.64939185     0.16700
C1012       C  0.34426606  0.93622668  0.62480708     0.28900
C1013       C  0.34512071  0.95358516  0.60025421    -0.24900
C1014       C  0.33140340  0.95217384  0.57121475    -0.24200
C1015       C  0.31733145  0.93276340  0.56611338     0.40400
C1016       C  0.31672403  0.91529963  0.59032287    -0.26700
O1017       O  0.35652352  0.93885199  0.65423903    -0.58600
H1018       H  0.35585393  0.96855013  0.60449642     0.16000
O1019       O  0.30406013  0.93073323  0.53753047    -0.60000
H1020       H  0.30591419  0.90041352  0.58590542     0.14500
H1021       H  0.36937365  0.84834385  0.68132431     0.46300
H1022       H  0.37278607  0.93608427  0.64796194     0.41700
H1023       H  0.31447675  0.92442582  0.51997375     0.45100
H1024       H  0.28415782  0.91511617  0.66058982     0.36600
C1025       C  0.72693570  0.76650588  0.71077922    -0.27600
C1026       C  0.73193246  0.75414436  0.74030570     0.02000
C1027       C  0.72111849  0.76019930  0.77079802     0.30100
C1028       C  0.70531600  0.77832015  0.77141967    -0.19400
C1029       C  0.69993608  0.79063519  0.74178396    -0.28800
C1030       C  0.71111551  0.78463174  0.71127159     0.44100
C1031       C  0.74912865  0.73550265  0.73927097     0.05300
O1032       O  0.72659377  0.74906849  0.80034528    -0.57300
H1033       H  0.69734320  0.78276945  0.79530325     0.18200
O1034       O  0.70616935  0.79572681  0.68151461    -0.64100
H1035       H  0.73525078  0.76196254  0.68717351     0.16700
C1036       C  0.74295981  0.71253078  0.74589822     0.28900
C1037       C  0.75981087  0.69534507  0.74594003    -0.24900
C1038       C  0.78283929  0.70071862  0.73876522    -0.24200
C1039       C  0.78887652  0.72373552  0.73177429     0.40400
C1040       C  0.77204429  0.74087868  0.73191145    -0.26700
O1041       O  0.72051389  0.70672124  0.75213440    -0.58600
H1042       H  0.75480860  0.67772992  0.75106572     0.16000
O1043       O  0.81126506  0.72978821  0.72559930    -0.60000
H1044       H  0.77695538  0.75853462  0.72687616     0.14500
H1045       H  0.71850262  0.80736387  0.67878709     0.46300
H1046       H  0.71370145  0.70369918  0.72954143     0.41700
H1047       H  0.81800598  0.73290974  0.74820249     0.45100
H1048       H  0.71357437  0.73847444  0.80472578     0.36600
C1049       C  0.65003054  0.89564005  0.66848086    -0.27600
C1050       C  0.66254049  0.89173441  0.63869768     0.02000
C1051       C  0.67427499  0.87075490  0.63467594     0.30100
C1052       C  0.67441441  0.85460837  0.66082974    -0.19400
C1053       C  0.66257040  0.85871303  0.69124547    -0.28800
C1054       C  0.64974958  0.87926938  0.69449761     0.44100
C1055       C  0.66441976  0.91005498  0.61276679     0.05300
O1056       O  0.68591957  0.86595499  0.60534208    -0.57300
H1057       H  0.68394070  0.83880373  0.65718092     0.18200
O1058       O  0.63775516  0.88411941  0.72349830    -0.64100
H1059       H  0.64096374  0.91173652  0.67201816     0.16700
C1060       C  0.64482403  0.92064971  0.59890498     0.28900
C1061       C  0.64727924  0.93815253  0.57485830    -0.24900
C1062       C  0.66917463  0.94531671  0.56396305    -0.24200
C1063       C  0.68877607  0.93444423  0.57772002     0.40400
C1064       C  0.68626127  0.91718140  0.60204481    -0.26700
O1065       O  0.62319536  0.91395674  0.60854451    -0.58600
H1066       H  0.63191295  0.94610050  0.56472242     0.16000
O1067       O  0.71053378  0.94077214  0.56818635    -0.60000
H1068       H  0.70152984  0.90941472  0.61281860     0.14500
H1069       H  0.62169194  0.87946401  0.71861147     0.46300
H1070       H  0.61890399  0.90147407  0.59263458     0.41700
H1071       H  0.71477477  0.92995314  0.54981505     0.45100
H1072       H  0.67408432  0.86012682  0.58942107     0.36600
C1073       C  0.57367080  0.84440313  0.88996721    -0.27600
C1074       C  0.58012576  0.82404719  0.87362385     0.02000
C1075       C  0.56903216  0.80331561  0.88200563     0.30100
C1076       C  0.55178878  0.80315574  0.90666666    -0.19400
C1077       C  0.54516267  0.82359280  0.92305569    -0.28800
C1078       C  0.55625194  0.84438849  0.91423014     0.44100
C1079       C  0.59831290  0.82480396  0.84762098     0.05300
O1080       O  0.57478031  0.78317810  0.86601779    -0.57300
H1081       H  0.54347381  0.78699755  0.91272528     0.18200
O1082       O  0.55067414  0.86476928  0.92966596    -0.64100
H1083       H  0.58226505  0.86042912  0.88395549     0.16700
C1084       C  0.59602431  0.83903824  0.81907544     0.28900
C1085       C  0.61332218  0.83953711  0.79461252    -0.24900
C1086       C  0.63327331  0.82609692  0.79816612    -0.24200
C1087       C  0.63576227  0.81227688  0.82742574     0.40400
C1088       C  0.61825695  0.81159386  0.85165896    -0.26700
O1089       O  0.57643152  0.85172838  0.81413903    -0.58600
H1090       H  0.61080238  0.85023427  0.77247861     0.16000
O1091       O  0.65509537  0.79927184  0.83268168    -0.60000
H1092       H  0.62034503  0.80086713  0.87388221     0.14500
H1093       H  0.53968301  0.87237456  0.91407363     0.46300
H1094       H  0.58072189  0.86777652  0.81989737     0.41700
H1095       H  0.66582259  0.80946576  0.84517364     0.45100
H1096       H  0.56489322  0.78260185  0.84557645     0.36600
C1097       C  0.42594850  0.80424550  0.87352787    -0.27600
C1098       C  0.41097320  0.82297825  0.87073594     0.02000
C1099       C  0.41330958  0.84174517  0.89288876     0.30100
C1100       C  0.43034579  0.84150018  0.91791260    -0.19400
C1101       C  0.44528150  0.82263090  0.92117462    -0.28800
C1102       C  0.44310579  0.80400090  0.89839239     0.44100
C1103       C  0.39291814  0.82296937  0.84456571     0.05300
O1104       O  0.39863123  0.86014121  0.89074705    -0.57300
H1105       H  0.43165762  0.85597430  0.93508861     0.18200
O1106       O  0.45777339  0.78556767  0.89991539    -0.64100
H1107       H  0.42438225  0.78984196  0.85626013     0.16700
C1108       C  0.39632737  0.83443512  0.81374104     0.28900
C1109       C  0.37845253  0.83573400  0.79016601    -0.24900
C1110       C  0.35694559  0.82552525  0.79671443    -0.24200
C1111       C  0.35385916  0.81347345  0.82748232     0.40400
C1112       C  0.37182626  0.81225421  0.85104665    -0.26700
O1113       O  0.41693628  0.84486011  0.80677778    -0.58600
H1114       H  0.38150096  0.84487522  0.76670699     0.16000
O1115       O  0.33331710  0.80317310  0.83519288    -0.60000
H1116       H  0.36913799  0.80333797  0.87480230     0.14500
H1117       H  0.47142173  0.79023280  0.88655239     0.46300
H1118       H  0.42627767  0.83289218  0.79536692     0.41700
H1119       H  0.32428132  0.81514221  0.84712338     0.45100
H1120       H  0.40602147  0.87091849  0.87462326     0.36600
C1121       C  0.41671513  0.80303281  0.10587031    -0.27600
C1122       C  0.41090847  0.82407326  0.12083715     0.02000
C1123       C  0.42146004  0.84439211  0.10964808     0.30100
C1124       C  0.43803370  0.84347379  0.08415836    -0.19400
C1125       C  0.44435601  0.82236375  0.06936217    -0.28800
C1126       C  0.43329318  0.80202673  0.08028445     0.44100
C1127       C  0.39433453  0.82460874  0.14890921     0.05300
O1128       O  0.41582357  0.86520667  0.12374035    -0.57300
H1129       H  0.44608746  0.85938564  0.07622811     0.18200
O1130       O  0.43874455  0.78103511  0.06664755    -0.64100
H1131       H  0.40860074  0.78729616  0.11444340     0.16700
C1132       C  0.37092017  0.82019789  0.14321119     0.28900
C1133       C  0.35554874  0.82052603  0.17036184    -0.24900
C1134       C  0.36328774  0.82534999  0.20328305    -0.24200
C1135       C  0.38674456  0.82982736  0.20891779     0.40400
C1136       C  0.40212760  0.82937021  0.18175568    -0.26700
O1137       O  0.36285853  0.81629624  0.11108055    -0.58600
H1138       H  0.33748788  0.81728494  0.16563232     0.16000
O1139       O  0.39493742  0.83349001  0.24103512    -0.60000
H1140       H  0.42022318  0.83250923  0.18633279     0.14500
H1141       H  0.42773783  0.77881624  0.04774744     0.46300
H1142       H  0.36206865  0.79932288  0.10883488     0.41700
H1143       H  0.39630419  0.85042731  0.24323616     0.45100
H1144       H  0.40220129  0.87057852  0.11088584     0.36600
C1145       C  0.62092952  0.81633171  0.13680756    -0.27600
C1146       C  0.59861794  0.82316679  0.14556513     0.02000
C1147       C  0.59413429  0.83072608  0.17871239     0.30100
C1148       C  0.61192881  0.83154518  0.20259358    -0.19400
C1149       C  0.63436764  0.82481954  0.19391179    -0.28800
C1150       C  0.63878076  0.81723633  0.16060855     0.44100
C1151       C  0.58022331  0.82280805  0.11971460     0.05300
O1152       O  0.57226545  0.83668417  0.18820687    -0.57300
H1153       H  0.60810764  0.83724686  0.22808710     0.18200
O1154       O  0.66055804  0.81121343  0.15077833    -0.64100
H1155       H  0.62457807  0.81066633  0.11123958     0.16700
C1156       C  0.57151056  0.84341130  0.10626221     0.28900
C1157       C  0.55412922  0.84282314  0.08176614    -0.24900
C1158       C  0.54515774  0.82177637  0.07004790    -0.24200
C1159       C  0.55404912  0.80108434  0.08368241     0.40400
C1160       C  0.57153771  0.80176304  0.10810057    -0.26700
O1161       O  0.58001054  0.86423795  0.11675958    -0.58600
H1162       H  0.54778953  0.85897443  0.07178987     0.16000
O1163       O  0.54604420  0.78007048  0.07315894    -0.60000
H1164       H  0.57823671  0.78578960  0.11822545     0.14500
H1165       H  0.66784881  0.82577579  0.14331086     0.46300
H1166       H  0.59332482  0.86734079  0.10178995     0.41700
H1167       H  0.53395811  0.77583463  0.08970777     0.45100
H1168       H  0.57166593  0.85367976  0.18626330     0.36600
loop_ 
_geom_bond_atom_site_label_1 
_geom_bond_atom_site_label_2 
_geom_bond_distance 
_geom_bond_site_symmetry_2 
_ccdc_geom_bond_type 
O1           Cu9   1.993   1_554  S
O1           C11   1.276       .  A
O2           Cu9   1.993       .  S
O2           C12   1.276       .  A
O3           Cu9   2.013       .  S
O3           C13   1.279       .  A
O4           Cu9   2.014   1_554  S
O4           C14   1.279       .  A
O5          Cu10   2.009   1_554  S
O5           C14   1.278       .  A
O6          Cu10   2.005       .  S
O6           C13   1.277       .  A
O7          Cu10   2.010       .  S
O7           C12   1.279       .  A
O8          Cu10   2.012   1_554  S
O8           C11   1.279       .  A
Cu9         Cu10   2.368       .  S
C11        C1125   1.483       .  S
C12        C1077   1.482       .  S
C13        C1101   1.481       .  S
C14        C1158   1.490       .  S
C15        C1086   1.485       .  S
C15          N16   1.357       .  A
C15          N20   1.359       .  A
N16          C17   1.358       .  A
C17        C1029   1.485       .  S
C17          N18   1.358       .  A
N18          C19   1.359       .  A
C19        C1053   1.486       .  S
C19          N20   1.357       .  A
C21        C1005   1.476       .  S
C21          N22   1.356       .  A
C21          N26   1.354       .  A
N22          C23   1.359       .  A
C23        C1110   1.487       .  S
C23          N24   1.361       .  A
N24          C25   1.360       .  A
C25         C981   1.471       .  S
C25          N26   1.355       .  A
C27        C1149   1.482       .  S
C27          N28   1.361       .  A
C27          N32   1.359       .  A
N28          C29   1.362       .  A
C29         C933   1.490       .  S
C29          N30   1.359       .  A
N30          C31   1.356       .  A
C31         C966   1.468       .  S
C31          N32   1.356       .  A
C33         C909   1.484       .  S
C33          N34   1.357       .  A
C33          N38   1.359       .  A
N34          C35   1.356       .  A
C35         C894   1.476       .  S
C35          N36   1.355       .  A
N36          C37   1.355       .  A
C37        C1134   1.470       .  S
C37          N38   1.358       .  A
O39         Cu47   2.005   1_545  S
O39          C49   1.277       .  A
O40         Cu47   2.004       .  S
O40          C50   1.278       .  A
O41         Cu47   2.011   1_545  S
O41          C51   1.278       .  A
O42         Cu47   2.006       .  S
O42          C52   1.278       .  A
O43         Cu48   2.002   1_565  S
O43          C52   1.278       .  A
O44         Cu48   1.999       .  S
O44          C51   1.277       .  A
O45         Cu48   2.013   1_565  S
O45          C50   1.278       .  A
O46         Cu48   2.010       .  S
O46          C49   1.279       .  A
Cu47        Cu48   2.369   1_565  S
C49         C837   1.483       .  S
C50         C957   1.485       .  S
C51         C870   1.480       .  S
C52        C1062   1.485       .  S
O53         Cu61   1.983   1_565  S
O53          C63   1.274       .  A
O54         Cu61   1.986       .  S
O54          C64   1.275       .  A
O55         Cu61   2.004   1_565  S
O55          C65   1.278       .  A
O56         Cu61   2.014       .  S
O56          C66   1.279       .  A
O57         Cu62   2.001       .  S
O57          C66   1.277       .  A
O58         Cu62   1.998   1_565  S
O58          C65   1.277       .  A
O59         Cu62   2.023       .  S
O59          C64   1.281       .  A
O60         Cu62   2.019   1_565  S
O60          C63   1.279       .  A
Cu61        Cu62   2.370       .  S
C63        C1014   1.467       .  S
C64         C813   1.485       .  S
C65         C918   1.482       .  S
C66         C798   1.485       .  S
O67         Cu75   2.027       .  S
O67          C77   1.280       .  A
O68         Cu75   2.019   1_556  S
O68          C78   1.280       .  A
O69         Cu75   1.986   1_556  S
O69          C79   1.274       .  A
O70         Cu75   1.984       .  S
O70          C80   1.275       .  A
O71         Cu76   2.014       .  S
O71          C80   1.279       .  A
O72         Cu76   2.011   1_556  S
O72          C79   1.279       .  A
O73         Cu76   2.014   1_556  S
O73          C78   1.278       .  A
O74         Cu76   2.010       .  S
O74          C77   1.278       .  A
Cu75        Cu76   2.372       .  S
C77         C765   1.486       .  S
C78         C702   1.486       .  S
C79         C717   1.465       .  S
C80         C741   1.478       .  S
C81         C789   1.490       .  S
C81          N82   1.358       .  A
C81          N86   1.361       .  A
N82          C83   1.357       .  A
C83         C726   1.479       .  S
C83          N84   1.354       .  A
N84          C85   1.354       .  A
C85         C669   1.468       .  S
C85          N86   1.359       .  A
C87         C693   1.495       .  S
C87          N88   1.361       .  A
C87          N92   1.359       .  A
N88          C89   1.360       .  A
C89         C645   1.488       .  S
C89          N90   1.358       .  A
N90          C91   1.359       .  A
C91         C846   1.490       .  S
C91          N92   1.360       .  A
C93         C750   1.486       .  S
C93          N94   1.356       .  A
C93          N98   1.360       .  A
N94          C95   1.354       .  A
C95         C861   1.483       .  S
C95          N96   1.356       .  A
N96          C97   1.358       .  A
C97         C630   1.471       .  S
C97          N98   1.360       .  A
C99         C822   1.485       .  S
C99         N100   1.358       .  A
C99         N104   1.358       .  A
N100        C101   1.359       .  A
C101        C597   1.483       .  S
C101        N102   1.361       .  A
N102        C103   1.361       .  A
C103        C774   1.494       .  S
C103        N104   1.357       .  A
O105       Cu113   1.996   1_455  S
O105        C115   1.277       .  A
O106       Cu113   2.000       .  S
O106        C116   1.276       .  A
O107       Cu113   2.022   1_455  S
O107        C117   1.280       .  A
O108       Cu113   2.020       .  S
O108        C118   1.280       .  A
O109       Cu114   1.991       .  S
O109        C118   1.275       .  A
O110       Cu114   1.989   1_455  S
O110        C117   1.275       .  A
O111       Cu114   2.002       .  S
O111        C116   1.278       .  A
O112       Cu114   2.003   1_455  S
O112        C115   1.277       .  A
Cu113      Cu114   2.372       .  S
C115        C501   1.474       .  S
C116        C573   1.471       .  S
C117        C525   1.480       .  S
C118        C549   1.483       .  S
O119       Cu127   2.025   1_655  S
O119        C129   1.280       .  A
O120       Cu127   2.020       .  S
O120        C130   1.280       .  A
O121       Cu127   2.002   1_655  S
O121        C131   1.276       .  A
O122       Cu127   2.005       .  S
O122        C132   1.277       .  A
O123       Cu128   2.018       .  S
O123        C132   1.280       .  A
O124       Cu128   2.018   1_655  S
O124        C131   1.280       .  A
O125       Cu128   1.992       .  S
O125        C130   1.276       .  A
O126       Cu128   1.990   1_655  S
O126        C129   1.276       .  A
Cu127      Cu128   2.368       .  S
C129        C477   1.486       .  S
C130        C414   1.480       .  S
C131        C429   1.483       .  S
C132        C453   1.489       .  S
O133       Cu141   2.010       .  S
O133        C143   1.279       .  A
O134       Cu141   2.019   1_554  S
O134        C144   1.279       .  A
O135       Cu141   2.008   1_554  S
O135        C145   1.278       .  A
O136       Cu141   2.011       .  S
O136        C146   1.278       .  A
O137       Cu142   2.011   1_556  S
O137        C146   1.278       .  A
O138       Cu142   2.009       .  S
O138        C145   1.278       .  A
O139       Cu142   1.995       .  S
O139        C144   1.277       .  A
O140       Cu142   2.000   1_556  S
O140        C143   1.277       .  A
Cu141      Cu142   2.369   1_556  S
C143        C318   1.483       .  S
C144        C381   1.486       .  S
C145        C357   1.487       .  S
C146        C342   1.477       .  S
C147        C510   1.486       .  S
C147        N148   1.358       .  A
C147        N152   1.359       .  A
N148        C149   1.357       .  A
C149        C309   1.481       .  S
C149        N150   1.356       .  A
N150        C151   1.356       .  A
C151        C990   1.486       .  S
C151        N152   1.357       .  A
C153        C405   1.490       .  S
C153        N154   1.360       .  A
C153        N158   1.359       .  A
N154        C155   1.358       .  A
C155        C333   1.481       .  S
C155        N156   1.357       .  A
N156        C157   1.358       .  A
C157        C678   1.490       .  S
C157        N158   1.359       .  A
C159        C462   1.484       .  S
C159        N160   1.360       .  A
C159        N164   1.357       .  A
N160        C161   1.362       .  A
C161        C390   1.491       .  S
C161        N162   1.361       .  A
N162        C163   1.358       .  A
C163        C606   1.484       .  S
C163        N164   1.355       .  A
C165        C366   1.484       .  S
C165        N166   1.360       .  A
C165        N170   1.356       .  A
N166        C167   1.361       .  A
C167        C534   1.491       .  S
C167        N168   1.358       .  A
N168        C169   1.357       .  A
C169        C885   1.473       .  S
C169        N170   1.356       .  A
O171       Cu179   2.000       .  S
O171        C181   1.277       .  A
O172       Cu179   1.996   1_554  S
O172        C182   1.276       .  A
O173       Cu179   2.006   1_554  S
O173        C183   1.279       .  A
O174       Cu179   2.001       .  S
O174        C184   1.278       .  A
O175       Cu180   2.008       .  S
O175        C184   1.278       .  A
O176       Cu180   1.997   1_554  S
O176        C183   1.276       .  A
O177       Cu180   2.014   1_554  S
O177        C182   1.278       .  A
O178       Cu180   2.015       .  S
O178        C181   1.279       .  A
Cu179      Cu180   2.369       .  S
C181        C213   1.484       .  S
C182        C285   1.472       .  S
C183        C270   1.483       .  S
C184        C237   1.485       .  S
C185        C246   1.483       .  S
C185        N186   1.359       .  A
C185        N190   1.359       .  A
N186        C187   1.360       .  A
C187        C438   1.492       .  S
C187        N188   1.359       .  A
N188        C189   1.358       .  A
C189        C654   1.482       .  S
C189        N190   1.359       .  A
C191        C222   1.483       .  S
C191        N192   1.355       .  A
C191        N196   1.360       .  A
N192        C193   1.356       .  A
C193        C558   1.486       .  S
C193        N194   1.357       .  A
N194        C195   1.359       .  A
C195       C1038   1.477       .  S
C195        N196   1.360       .  A
C197        C261   1.481       .  S
C197        N198   1.353       .  A
C197        N202   1.356       .  A
N198        C199   1.355       .  A
C199        C582   1.486       .  S
C199        N200   1.363       .  A
N200        C201   1.363       .  A
C201        C942   1.486       .  S
C201        N202   1.358       .  A
C203        C486   1.487       .  S
C203        N204   1.356       .  A
C203        N208   1.362       .  A
N204        C205   1.354       .  A
C205        C621   1.487       .  S
C205        N206   1.357       .  A
N206        C207   1.359       .  A
C207        C294   1.485       .  S
C207        N208   1.364       .  A
C209        C210   1.401       .  A
C209        C214   1.399       .  A
C209        H219   1.084       .  S
C210        C215   1.474       .  S
C210        C211   1.404       .  A
C211        C212   1.399       .  A
C211        O216   1.372       .  S
C212        C213   1.409       .  A
C212        H217   1.083       .  S
C213        C214   1.413       .  A
C214        O218   1.371       .  S
C215        C220   1.405       .  A
C215        C224   1.399       .  A
O216        H232   0.992       .  S
O218        H229   0.992       .  S
C220        C221   1.399       .  A
C220        O225   1.372       .  S
C221        C222   1.406       .  A
C221        H226   1.083       .  S
C222        C223   1.415       .  A
C223        C224   1.399       .  A
C223        O227   1.372       .  S
C224        H228   1.084       .  S
O225        H230   0.992       .  S
O227        H231   0.992       .  S
C233        C234   1.402       .  A
C233        C238   1.401       .  A
C233        H243   1.084       .  S
C234        C239   1.479       .  S
C234        C235   1.405       .  A
C235        C236   1.397       .  A
C235        O240   1.372       .  S
C236        C237   1.407       .  A
C236        H241   1.083       .  S
C237        C238   1.414       .  A
C238        O242   1.372       .  S
C239        C244   1.406       .  A
C239        C248   1.402       .  A
O240        H256   0.992       .  S
O242        H253   0.992       .  S
C244        C245   1.401       .  A
C244        O249   1.372       .  S
C245        C246   1.407       .  A
C245        H250   1.083       .  S
C246        C247   1.412       .  A
C247        C248   1.400       .  A
C247        O251   1.372       .  S
C248        H252   1.084       .  S
O249        H254   0.992       .  S
O251        H255   0.992       .  S
C257        C258   1.401       .  A
C257        C262   1.397       .  A
C257        H267   1.084       .  S
C258        C263   1.476       .  S
C258        C259   1.405       .  A
C259        C260   1.397       .  A
C259        O264   1.372       .  S
C260        C261   1.408       .  A
C260        H265   1.083       .  S
C261        C262   1.411       .  A
C262        O266   1.371       .  S
C263        C268   1.405       .  A
C263        C272   1.401       .  A
O264        H280   0.992       .  S
O266        H277   0.992       .  S
C268        C269   1.397       .  A
C268        O273   1.372       .  S
C269        C270   1.407       .  A
C269        H274   1.083       .  S
C270        C271   1.414       .  A
C271        C272   1.397       .  A
C271        O275   1.372       .  S
C272        H276   1.084       .  S
O273        H278   0.992       .  S
O275        H279   0.992       .  S
C281        C282   1.407       .  A
C281        C286   1.401       .  A
C281        H291   1.083       .  S
C282        C287   1.490       .  S
C282        C283   1.413       .  A
C283        C284   1.397       .  A
C283        O288   1.372       .  S
C284        C285   1.401       .  A
C284        H289   1.084       .  S
C285        C286   1.407       .  A
C286        O290   1.372       .  S
C287        C292   1.412       .  A
C287        C296   1.404       .  A
O288        H304   0.991       .  S
O290        H301   0.992       .  S
C292        C293   1.402       .  A
C292        O297   1.371       .  S
C293        C294   1.404       .  A
C293        H298   1.083       .  S
C294        C295   1.413       .  A
C295        C296   1.399       .  A
C295        O299   1.372       .  S
C296        H300   1.083       .  S
O297        H302   0.992       .  S
O299        H303   0.992       .  S
C305        C306   1.403       .  A
C305        C310   1.401       .  A
C305        H315   1.084       .  S
C306        C311   1.481       .  S
C306        C307   1.407       .  A
C307        C308   1.396       .  A
C307        O312   1.372       .  S
C308        C309   1.406       .  A
C308        H313   1.083       .  S
C309        C310   1.411       .  A
C310        O314   1.372       .  S
C311        C316   1.408       .  A
C311        C320   1.402       .  A
O312        H328   0.992       .  S
O314        H325   0.992       .  S
C316        C317   1.399       .  A
C316        O321   1.372       .  S
C317        C318   1.406       .  A
C317        H322   1.083       .  S
C318        C319   1.414       .  A
C319        C320   1.398       .  A
C319        O323   1.371       .  S
C320        H324   1.084       .  S
O321        H326   0.992       .  S
O323        H327   0.992       .  S
C329        C330   1.406       .  A
C329        C334   1.398       .  A
C329        H339   1.082       .  S
C330        C335   1.494       .  S
C330        C331   1.413       .  A
C331        C332   1.401       .  A
C331        O336   1.372       .  S
C332        C333   1.404       .  A
C332        H337   1.084       .  S
C333        C334   1.410       .  A
C334        O338   1.372       .  S
C335        C340   1.413       .  A
C335        C344   1.407       .  A
O336        H352   0.992       .  S
O338        H349   0.992       .  S
C340        C341   1.401       .  A
C340        O345   1.373       .  S
C341        C342   1.401       .  A
C341        H346   1.084       .  S
C342        C343   1.408       .  A
C343        C344   1.401       .  A
C343        O347   1.372       .  S
C344        H348   1.083       .  S
O345        H350   0.992       .  S
O347        H351   0.992       .  S
C353        C354   1.400       .  A
C353        C358   1.398       .  A
C353        H363   1.084       .  S
C354        C359   1.477       .  S
C354        C355   1.405       .  A
C355        C356   1.402       .  A
C355        O360   1.372       .  S
C356        C357   1.409       .  A
C356        H361   1.083       .  S
C357        C358   1.414       .  A
C358        O362   1.371       .  S
C359        C364   1.405       .  A
C359        C368   1.402       .  A
O360        H376   0.992       .  S
O362        H373   0.992       .  S
C364        C365   1.399       .  A
C364        O369   1.372       .  S
C365        C366   1.408       .  A
C365        H370   1.083       .  S
C366        C367   1.412       .  A
C367        C368   1.399       .  A
C367        O371   1.371       .  S
C368        H372   1.084       .  S
O369        H374   0.992       .  S
O371        H375   0.992       .  S
C377        C378   1.404       .  A
C377        C382   1.403       .  A
C377        H387   1.083       .  S
C378        C383   1.481       .  S
C378        C379   1.406       .  A
C379        C380   1.396       .  A
C379        O384   1.372       .  S
C380        C381   1.407       .  A
C380        H385   1.083       .  S
C381        C382   1.413       .  A
C382        O386   1.371       .  S
C383        C388   1.406       .  A
C383        C392   1.401       .  A
O384        H400   0.992       .  S
O386        H397   0.992       .  S
C388        C389   1.403       .  A
C388        O393   1.372       .  S
C389        C390   1.410       .  A
C389        H394   1.083       .  S
C390        C391   1.415       .  A
C391        C392   1.398       .  A
C391        O395   1.371       .  S
C392        H396   1.084       .  S
O393        H398   0.992       .  S
O395        H399   0.992       .  S
C401        C402   1.399       .  A
C401        C406   1.398       .  A
C401        H411   1.084       .  S
C402        C407   1.475       .  S
C402        C403   1.404       .  A
C403        C404   1.400       .  A
C403        O408   1.372       .  S
C404        C405   1.409       .  A
C404        H409   1.083       .  S
C405        C406   1.416       .  A
C406        O410   1.370       .  S
C407        C412   1.405       .  A
C407        C416   1.402       .  A
O408        H424   0.992       .  S
O410        H421   0.992       .  S
C412        C413   1.398       .  A
C412        O417   1.372       .  S
C413        C414   1.407       .  A
C413        H418   1.083       .  S
C414        C415   1.411       .  A
C415        C416   1.400       .  A
C415        O419   1.371       .  S
C416        H420   1.084       .  S
O417        H422   0.992       .  S
O419        H423   0.992       .  S
C425        C426   1.403       .  A
C425        C430   1.402       .  A
C425        H435   1.083       .  S
C426        C431   1.483       .  S
C426        C427   1.408       .  A
C427        C428   1.399       .  A
C427        O432   1.371       .  S
C428        C429   1.404       .  A
C428        H433   1.083       .  S
C429        C430   1.413       .  A
C430        O434   1.372       .  S
C431        C436   1.406       .  A
C431        C440   1.402       .  A
O432        H448   0.992       .  S
O434        H445   0.992       .  S
C436        C437   1.402       .  A
C436        O441   1.372       .  S
C437        C438   1.410       .  A
C437        H442   1.083       .  S
C438        C439   1.415       .  A
C439        C440   1.399       .  A
C439        O443   1.371       .  S
C440        H444   1.084       .  S
O441        H446   0.992       .  S
O443        H447   0.992       .  S
C449        C450   1.402       .  A
C449        C454   1.399       .  A
C449        H459   1.083       .  S
C450        C455   1.485       .  S
C450        C451   1.408       .  A
C451        C452   1.401       .  A
C451        O456   1.372       .  S
C452        C453   1.408       .  A
C452        H457   1.083       .  S
C453        C454   1.415       .  A
C454        O458   1.372       .  S
C455        C460   1.407       .  A
C455        C464   1.405       .  A
O456        H472   0.992       .  S
O458        H469   0.992       .  S
C460        C461   1.398       .  A
C460        O465   1.372       .  S
C461        C462   1.406       .  A
C461        H466   1.083       .  S
C462        C463   1.412       .  A
C463        C464   1.402       .  A
C463        O467   1.372       .  S
C464        H468   1.083       .  S
O465        H470   0.992       .  S
O467        H471   0.992       .  S
C473        C474   1.406       .  A
C473        C478   1.402       .  A
C473        H483   1.084       .  S
C474        C479   1.484       .  S
C474        C475   1.406       .  A
C475        C476   1.399       .  A
C475        O480   1.373       .  S
C476        C477   1.408       .  A
C476        H481   1.083       .  S
C477        C478   1.411       .  A
C478        O482   1.371       .  S
C479        C484   1.411       .  A
C479        C488   1.399       .  A
O480        H496   0.992       .  S
O482        H493   0.991       .  S
C484        C485   1.403       .  A
C484        O489   1.371       .  S
C485        C486   1.406       .  A
C485        H490   1.083       .  S
C486        C487   1.415       .  A
C487        C488   1.396       .  A
C487        O491   1.370       .  S
C488        H492   1.084       .  S
O489        H494   0.992       .  S
O491        H495   0.992       .  S
C497        C498   1.402       .  A
C497        C502   1.398       .  A
C497        H507   1.083       .  S
C498        C503   1.476       .  S
C498        C499   1.407       .  A
C499        C500   1.396       .  A
C499        O504   1.372       .  S
C500        C501   1.405       .  A
C500        H505   1.084       .  S
C501        C502   1.409       .  A
C502        O506   1.372       .  S
C503        C508   1.405       .  A
C503        C512   1.400       .  A
O504        H520   0.992       .  S
O506        H517   0.992       .  S
C508        C509   1.398       .  A
C508        O513   1.372       .  S
C509        C510   1.408       .  A
C509        H514   1.083       .  S
C510        C511   1.415       .  A
C511        C512   1.396       .  A
C511        O515   1.370       .  S
C512        H516   1.084       .  S
O513        H518   0.992       .  S
O515        H519   0.992       .  S
C521        C522   1.401       .  A
C521        C526   1.397       .  A
C521        H531   1.084       .  S
C522        C527   1.481       .  S
C522        C523   1.409       .  A
C523        C524   1.403       .  A
C523        O528   1.372       .  S
C524        C525   1.405       .  A
C524        H529   1.083       .  S
C525        C526   1.413       .  A
C526        O530   1.372       .  S
C527        C532   1.406       .  A
C527        C536   1.401       .  A
O528        H544   0.992       .  S
O530        H541   0.992       .  S
C532        C533   1.399       .  A
C532        O537   1.371       .  S
C533        C534   1.408       .  A
C533        H538   1.083       .  S
C534        C535   1.417       .  A
C535        C536   1.400       .  A
C535        O539   1.371       .  S
C536        H540   1.084       .  S
O537        H542   0.992       .  S
O539        H543   0.992       .  S
C545        C546   1.400       .  A
C545        C550   1.397       .  A
C545        H555   1.084       .  S
C546        C551   1.480       .  S
C546        C547   1.408       .  A
C547        C548   1.402       .  A
C547        O552   1.373       .  S
C548        C549   1.406       .  A
C548        H553   1.083       .  S
C549        C550   1.414       .  A
C550        O554   1.372       .  S
C551        C556   1.406       .  A
C551        C560   1.403       .  A
O552        H568   0.992       .  S
O554        H565   0.992       .  S
C556        C557   1.396       .  A
C556        O561   1.372       .  S
C557        C558   1.408       .  A
C557        H562   1.083       .  S
C558        C559   1.414       .  A
C559        C560   1.400       .  A
C559        O563   1.371       .  S
C560        H564   1.084       .  S
O561        H566   0.992       .  S
O563        H567   0.992       .  S
C569        C570   1.405       .  A
C569        C574   1.401       .  A
C569        H579   1.083       .  S
C570        C575   1.480       .  S
C570        C571   1.408       .  A
C571        C572   1.396       .  A
C571        O576   1.371       .  S
C572        C573   1.402       .  A
C572        H577   1.084       .  S
C573        C574   1.409       .  A
C574        O578   1.372       .  S
C575        C580   1.405       .  A
C575        C584   1.404       .  A
O576        H592   0.992       .  S
O578        H589   0.992       .  S
C580        C581   1.398       .  A
C580        O585   1.373       .  S
C581        C582   1.410       .  A
C581        H586   1.083       .  S
C582        C583   1.411       .  A
C583        C584   1.400       .  A
C583        O587   1.371       .  S
C584        H588   1.084       .  S
O585        H590   0.992       .  S
O587        H591   0.992       .  S
C593        C594   1.402       .  A
C593        C598   1.401       .  A
C593        H603   1.083       .  S
C594        C599   1.482       .  S
C594        C595   1.408       .  A
C595        C596   1.401       .  A
C595        O600   1.372       .  S
C596        C597   1.406       .  A
C596        H601   1.084       .  S
C597        C598   1.411       .  A
C598        O602   1.372       .  S
C599        C604   1.408       .  A
C599        C608   1.402       .  A
O600        H616   0.992       .  S
O602        H613   0.992       .  S
C604        C605   1.401       .  A
C604        O609   1.372       .  S
C605        C606   1.405       .  A
C605        H610   1.083       .  S
C606        C607   1.413       .  A
C607        C608   1.400       .  A
C607        O611   1.372       .  S
C608        H612   1.084       .  S
O609        H614   0.992       .  S
O611        H615   0.992       .  S
C617        C618   1.400       .  A
C617        C622   1.396       .  A
C617        H627   1.084       .  S
C618        C623   1.479       .  S
C618        C619   1.407       .  A
C619        C620   1.399       .  A
C619        O624   1.372       .  S
C620        C621   1.408       .  A
C620        H625   1.083       .  S
C621        C622   1.415       .  A
C622        O626   1.370       .  S
C623        C628   1.408       .  A
C623        C632   1.404       .  A
O624        H640   0.992       .  S
O626        H637   0.992       .  S
C628        C629   1.396       .  A
C628        O633   1.372       .  S
C629        C630   1.402       .  A
C629        H634   1.084       .  S
C630        C631   1.408       .  A
C631        C632   1.400       .  A
C631        O635   1.371       .  S
C632        H636   1.084       .  S
O633        H638   0.992       .  S
O635        H639   0.992       .  S
C641        C642   1.403       .  A
C641        C646   1.401       .  A
C641        H651   1.083       .  S
C642        C647   1.485       .  S
C642        C643   1.408       .  A
C643        C644   1.401       .  A
C643        O648   1.372       .  S
C644        C645   1.408       .  A
C644        H649   1.083       .  S
C645        C646   1.413       .  A
C646        O650   1.371       .  S
C647        C652   1.408       .  A
C647        C656   1.404       .  A
O648        H664   0.992       .  S
O650        H661   0.992       .  S
C652        C653   1.401       .  A
C652        O657   1.372       .  S
C653        C654   1.405       .  A
C653        H658   1.084       .  S
C654        C655   1.411       .  A
C655        C656   1.401       .  A
C655        O659   1.372       .  S
C656        H660   1.084       .  S
O657        H662   0.992       .  S
O659        H663   0.992       .  S
C665        C666   1.404       .  A
C665        C670   1.398       .  A
C665        H675   1.083       .  S
C666        C671   1.482       .  S
C666        C667   1.412       .  A
C667        C668   1.398       .  A
C667        O672   1.372       .  S
C668        C669   1.400       .  A
C668        H673   1.084       .  S
C669        C670   1.407       .  A
C670        O674   1.372       .  S
C671        C676   1.407       .  A
C671        C680   1.401       .  A
O672        H688   0.992       .  S
O674        H685   0.992       .  S
C676        C677   1.400       .  A
C676        O681   1.372       .  S
C677        C678   1.409       .  A
C677        H682   1.083       .  S
C678        C679   1.414       .  A
C679        C680   1.397       .  A
C679        O683   1.370       .  S
C680        H684   1.084       .  S
O681        H686   0.992       .  S
O683        H687   0.992       .  S
C689        C690   1.403       .  A
C689        C694   1.404       .  A
C689        H699   1.084       .  S
C690        C695   1.489       .  S
C690        C691   1.408       .  A
C691        C692   1.402       .  A
C691        O696   1.373       .  S
C692        C693   1.408       .  A
C692        H697   1.083       .  S
C693        C694   1.417       .  A
C694        O698   1.371       .  S
C695        C700   1.409       .  A
C695        C704   1.405       .  A
O696        H712   0.992       .  S
O698        H709   0.992       .  S
C700        C701   1.400       .  A
C700        O705   1.371       .  S
C701        C702   1.404       .  A
C701        H706   1.083       .  S
C702        C703   1.413       .  A
C703        C704   1.404       .  A
C703        O707   1.372       .  S
C704        H708   1.084       .  S
O705        H710   0.992       .  S
O707        H711   0.992       .  S
C713        C714   1.403       .  A
C713        C718   1.397       .  A
C713        H723   1.084       .  S
C714        C719   1.473       .  S
C714        C715   1.406       .  A
C715        C716   1.397       .  A
C715        O720   1.372       .  S
C716        C717   1.403       .  A
C716        H721   1.084       .  S
C717        C718   1.405       .  A
C718        O722   1.372       .  S
C719        C724   1.404       .  A
C719        C728   1.401       .  A
O720        H736   0.992       .  S
O722        H733   0.991       .  S
C724        C725   1.396       .  A
C724        O729   1.372       .  S
C725        C726   1.406       .  A
C725        H730   1.083       .  S
C726        C727   1.413       .  A
C727        C728   1.398       .  A
C727        O731   1.372       .  S
C728        H732   1.084       .  S
O729        H734   0.992       .  S
O731        H735   0.992       .  S
C737        C738   1.404       .  A
C737        C742   1.401       .  A
C737        H747   1.084       .  S
C738        C743   1.476       .  S
C738        C739   1.405       .  A
C739        C740   1.394       .  A
C739        O744   1.372       .  S
C740        C741   1.406       .  A
C740        H745   1.083       .  S
C741        C742   1.411       .  A
C742        O746   1.372       .  S
C743        C748   1.403       .  A
C743        C752   1.403       .  A
O744        H760   0.992       .  S
O746        H757   0.992       .  S
C748        C749   1.395       .  A
C748        O753   1.372       .  S
C749        C750   1.409       .  A
C749        H754   1.082       .  S
C750        C751   1.413       .  A
C751        C752   1.401       .  A
C751        O755   1.371       .  S
C752        H756   1.084       .  S
O753        H758   0.992       .  S
O755        H759   0.992       .  S
C761        C762   1.402       .  A
C761        C766   1.400       .  A
C761        H771   1.084       .  S
C762        C767   1.485       .  S
C762        C763   1.409       .  A
C763        C764   1.406       .  A
C763        O768   1.372       .  S
C764        C765   1.406       .  A
C764        H769   1.083       .  S
C765        C766   1.412       .  A
C766        O770   1.372       .  S
C767        C772   1.407       .  A
C767        C776   1.401       .  A
O768        H784   0.992       .  S
O770        H781   0.992       .  S
C772        C773   1.403       .  A
C772        O777   1.371       .  S
C773        C774   1.409       .  A
C773        H778   1.083       .  S
C774        C775   1.417       .  A
C775        C776   1.400       .  A
C775        O779   1.372       .  S
C776        H780   1.084       .  S
O777        H782   0.992       .  S
O779        H783   0.992       .  S
C785        C786   1.400       .  A
C785        C790   1.398       .  A
C785        H795   1.084       .  S
C786        C791   1.480       .  S
C786        C787   1.406       .  A
C787        C788   1.400       .  A
C787        O792   1.372       .  S
C788        C789   1.408       .  A
C788        H793   1.083       .  S
C789        C790   1.417       .  A
C790        O794   1.372       .  S
C791        C796   1.406       .  A
C791        C800   1.402       .  A
O792        H808   0.992       .  S
O794        H805   0.992       .  S
C796        C797   1.400       .  A
C796        O801   1.372       .  S
C797        C798   1.408       .  A
C797        H802   1.083       .  S
C798        C799   1.413       .  A
C799        C800   1.400       .  A
C799        O803   1.371       .  S
C800        H804   1.084       .  S
O801        H806   0.992       .  S
O803        H807   0.992       .  S
C809        C810   1.398       .  A
C809        C814   1.397       .  A
C809        H819   1.084       .  S
C810        C815   1.477       .  S
C810        C811   1.407       .  A
C811        C812   1.402       .  A
C811        O816   1.372       .  S
C812        C813   1.406       .  A
C812        H817   1.083       .  S
C813        C814   1.416       .  A
C814        O818   1.372       .  S
C815        C820   1.405       .  A
C815        C824   1.401       .  A
O816        H832   0.992       .  S
O818        H829   0.992       .  S
C820        C821   1.398       .  A
C820        O825   1.372       .  S
C821        C822   1.408       .  A
C821        H826   1.083       .  S
C822        C823   1.413       .  A
C823        C824   1.400       .  A
C823        O827   1.371       .  S
C824        H828   1.084       .  S
O825        H830   0.992       .  S
O827        H831   0.992       .  S
C833        C834   1.400       .  A
C833        C838   1.400       .  A
C833        H843   1.084       .  S
C834        C839   1.477       .  S
C834        C835   1.406       .  A
C835        C836   1.400       .  A
C835        O840   1.372       .  S
C836        C837   1.406       .  A
C836        H841   1.083       .  S
C837        C838   1.413       .  A
C838        O842   1.372       .  S
C839        C844   1.404       .  A
C839        C848   1.400       .  A
O840        H856   0.992       .  S
O842        H853   0.992       .  S
C844        C845   1.399       .  A
C844        O849   1.372       .  S
C845        C846   1.409       .  A
C845        H850   1.083       .  S
C846        C847   1.416       .  A
C847        C848   1.400       .  A
C847        O851   1.371       .  S
C848        H852   1.084       .  S
O849        H854   0.992       .  S
O851        H855   0.992       .  S
C857        C858   1.402       .  A
C857        C862   1.395       .  A
C857        H867   1.083       .  S
C858        C863   1.484       .  S
C858        C859   1.409       .  A
C859        C860   1.400       .  A
C859        O864   1.371       .  S
C860        C861   1.407       .  A
C860        H865   1.083       .  S
C861        C862   1.413       .  A
C862        O866   1.372       .  S
C863        C868   1.409       .  A
C863        C872   1.404       .  A
O864        H880   0.992       .  S
O866        H877   0.992       .  S
C868        C869   1.397       .  A
C868        O873   1.373       .  S
C869        C870   1.404       .  A
C869        H874   1.084       .  S
C870        C871   1.411       .  A
C871        C872   1.401       .  A
C871        O875   1.371       .  S
C872        H876   1.083       .  S
O873        H878   0.992       .  S
O875        H879   0.992       .  S
C881        C882   1.401       .  A
C881        C886   1.397       .  A
C881        H891   1.083       .  S
C882        C887   1.475       .  S
C882        C883   1.407       .  A
C883        C884   1.397       .  A
C883        O888   1.372       .  S
C884        C885   1.404       .  A
C884        H889   1.084       .  S
C885        C886   1.409       .  A
C886        O890   1.371       .  S
C887        C892   1.406       .  A
C887        C896   1.402       .  A
O888        H904   0.992       .  S
O890        H901   0.992       .  S
C892        C893   1.396       .  A
C892        O897   1.372       .  S
C893        C894   1.405       .  A
C893        H898   1.083       .  S
C894        C895   1.411       .  A
C895        C896   1.397       .  A
C895        O899   1.372       .  S
C896        H900   1.084       .  S
O897        H902   0.992       .  S
O899        H903   0.992       .  S
C905        C906   1.402       .  A
C905        C910   1.399       .  A
C905        H915   1.084       .  S
C906        C911   1.478       .  S
C906        C907   1.405       .  A
C907        C908   1.396       .  A
C907        O912   1.372       .  S
C908        C909   1.408       .  A
C908        H913   1.083       .  S
C909        C910   1.413       .  A
C910        O914   1.371       .  S
C911        C916   1.406       .  A
C911        C920   1.402       .  A
O912        H928   0.992       .  S
O914        H925   0.992       .  S
C916        C917   1.396       .  A
C916        O921   1.372       .  S
C917        C918   1.407       .  A
C917        H922   1.083       .  S
C918        C919   1.413       .  A
C919        C920   1.399       .  A
C919        O923   1.371       .  S
C920        H924   1.084       .  S
O921        H926   0.992       .  S
O923        H927   0.992       .  S
C929        C930   1.403       .  A
C929        C934   1.401       .  A
C929        H939   1.083       .  S
C930        C935   1.490       .  S
C930        C931   1.411       .  A
C931        C932   1.401       .  A
C931        O936   1.372       .  S
C932        C933   1.406       .  A
C932        H937   1.083       .  S
C933        C934   1.415       .  A
C934        O938   1.371       .  S
C935        C940   1.411       .  A
C935        C944   1.403       .  A
O936        H952   0.992       .  S
O938        H949   0.992       .  S
C940        C941   1.403       .  A
C940        O945   1.371       .  S
C941        C942   1.405       .  A
C941        H946   1.083       .  S
C942        C943   1.413       .  A
C943        C944   1.399       .  A
C943        O947   1.372       .  S
C944        H948   1.083       .  S
O945        H950   0.992       .  S
O947        H951   0.992       .  S
C953        C954   1.402       .  A
C953        C958   1.401       .  A
C953        H963   1.084       .  S
C954        C959   1.480       .  S
C954        C955   1.406       .  A
C955        C956   1.398       .  A
C955        O960   1.372       .  S
C956        C957   1.407       .  A
C956        H961   1.083       .  S
C957        C958   1.413       .  A
C958        O962   1.371       .  S
C959        C964   1.409       .  A
C959        C968   1.404       .  A
O960        H976   0.992       .  S
O962        H973   0.992       .  S
C964        C965   1.401       .  A
C964        O969   1.372       .  S
C965        C966   1.401       .  A
C965        H970   1.084       .  S
C966        C967   1.405       .  A
C967        C968   1.400       .  A
C967        O971   1.371       .  S
C968        H972   1.084       .  S
O969        H974   0.992       .  S
O971        H975   0.992       .  S
C977        C978   1.403       .  A
C977        C982   1.396       .  A
C977        H987   1.083       .  S
C978        C983   1.482       .  S
C978        C979   1.412       .  A
C979        C980   1.399       .  A
C979        O984   1.372       .  S
C980        C981   1.402       .  A
C980        H985   1.084       .  S
C981        C982   1.409       .  A
C982        O986   1.372       .  S
C983        C988   1.409       .  A
C983        C992   1.401       .  A
O984       H1000   0.992       .  S
O986        H997   0.992       .  S
C988        C989   1.399       .  A
C988        O993   1.372       .  S
C989        C990   1.408       .  A
C989        H994   1.083       .  S
C990        C991   1.414       .  A
C991        C992   1.395       .  A
C991        O995   1.371       .  S
C992        H996   1.083       .  S
O993        H998   0.992       .  S
O995        H999   0.992       .  S
C1001      C1002   1.403       .  A
C1001      C1006   1.397       .  A
C1001      H1011   1.083       .  S
C1002      C1007   1.481       .  S
C1002      C1003   1.410       .  A
C1003      C1004   1.397       .  A
C1003      O1008   1.372       .  S
C1004      C1005   1.404       .  A
C1004      H1009   1.084       .  S
C1005      C1006   1.410       .  A
C1006      O1010   1.371       .  S
C1007      C1012   1.411       .  A
C1007      C1016   1.403       .  A
O1008      H1024   0.992       .  S
O1010      H1021   0.992       .  S
C1012      C1013   1.401       .  A
C1012      O1017   1.372       .  S
C1013      C1014   1.399       .  A
C1013      H1018   1.084       .  S
C1014      C1015   1.408       .  A
C1015      C1016   1.395       .  A
C1015      O1019   1.372       .  S
C1016      H1020   1.084       .  S
O1017      H1022   0.992       .  S
O1019      H1023   0.992       .  S
C1025      C1026   1.401       .  A
C1025      C1030   1.400       .  A
C1025      H1035   1.084       .  S
C1026      C1031   1.476       .  S
C1026      C1027   1.405       .  A
C1027      C1028   1.399       .  A
C1027      O1032   1.372       .  S
C1028      C1029   1.408       .  A
C1028      H1033   1.083       .  S
C1029      C1030   1.414       .  A
C1030      O1034   1.371       .  S
C1031      C1036   1.407       .  A
C1031      C1040   1.400       .  A
O1032      H1048   0.992       .  S
O1034      H1045   0.992       .  S
C1036      C1037   1.400       .  A
C1036      O1041   1.372       .  S
C1037      C1038   1.405       .  A
C1037      H1042   1.084       .  S
C1038      C1039   1.411       .  A
C1039      C1040   1.398       .  A
C1039      O1043   1.372       .  S
C1040      H1044   1.084       .  S
O1041      H1046   0.992       .  S
O1043      H1047   0.992       .  S
C1049      C1050   1.403       .  A
C1049      C1054   1.401       .  A
C1049      H1059   1.084       .  S
C1050      C1055   1.482       .  S
C1050      C1051   1.407       .  A
C1051      C1052   1.396       .  A
C1051      O1056   1.372       .  S
C1052      C1053   1.406       .  A
C1052      H1057   1.083       .  S
C1053      C1054   1.415       .  A
C1054      O1058   1.372       .  S
C1055      C1060   1.407       .  A
C1055      C1064   1.403       .  A
O1056      H1072   0.992       .  S
O1058      H1069   0.992       .  S
C1060      C1061   1.400       .  A
C1060      O1065   1.372       .  S
C1061      C1062   1.408       .  A
C1061      H1066   1.083       .  S
C1062      C1063   1.413       .  A
C1063      C1064   1.397       .  A
C1063      O1067   1.371       .  S
C1064      H1068   1.084       .  S
O1065      H1070   0.992       .  S
O1067      H1071   0.992       .  S
C1073      C1074   1.400       .  A
C1073      C1078   1.396       .  A
C1073      H1083   1.084       .  S
C1074      C1079   1.476       .  S
C1074      C1075   1.407       .  A
C1075      C1076   1.399       .  A
C1075      O1080   1.372       .  S
C1076      C1077   1.407       .  A
C1076      H1081   1.083       .  S
C1077      C1078   1.414       .  A
C1078      O1082   1.372       .  S
C1079      C1084   1.405       .  A
C1079      C1088   1.401       .  A
O1080      H1096   0.992       .  S
O1082      H1093   0.992       .  S
C1084      C1085   1.396       .  A
C1084      O1089   1.372       .  S
C1085      C1086   1.407       .  A
C1085      H1090   1.083       .  S
C1086      C1087   1.415       .  A
C1087      C1088   1.399       .  A
C1087      O1091   1.371       .  S
C1088      H1092   1.084       .  S
O1089      H1094   0.992       .  S
O1091      H1095   0.992       .  S
C1097      C1098   1.399       .  A
C1097      C1102   1.400       .  A
C1097      H1107   1.084       .  S
C1098      C1103   1.473       .  S
C1098      C1099   1.405       .  A
C1099      C1100   1.400       .  A
C1099      O1104   1.372       .  S
C1100      C1101   1.406       .  A
C1100      H1105   1.083       .  S
C1101      C1102   1.414       .  A
C1102      O1106   1.372       .  S
C1103      C1108   1.403       .  A
C1103      C1112   1.400       .  A
O1104      H1120   0.992       .  S
O1106      H1117   0.992       .  S
C1108      C1109   1.398       .  A
C1108      O1113   1.372       .  S
C1109      C1110   1.409       .  A
C1109      H1114   1.083       .  S
C1110      C1111   1.415       .  A
C1111      C1112   1.401       .  A
C1111      O1115   1.371       .  S
C1112      H1116   1.084       .  S
O1113      H1118   0.992       .  S
O1115      H1119   0.992       .  S
C1121      C1122   1.400       .  A
C1121      C1126   1.399       .  A
C1121      H1131   1.084       .  S
C1122      C1127   1.471       .  S
C1122      C1123   1.403       .  A
C1123      C1124   1.396       .  A
C1123      O1128   1.372       .  S
C1124      C1125   1.408       .  A
C1124      H1129   1.083       .  S
C1125      C1126   1.414       .  A
C1126      O1130   1.371       .  S
C1127      C1132   1.404       .  A
C1127      C1136   1.402       .  A
O1128      H1144   0.992       .  S
O1130      H1141   0.992       .  S
C1132      C1133   1.398       .  A
C1132      O1137   1.372       .  S
C1133      C1134   1.404       .  A
C1133      H1138   1.084       .  S
C1134      C1135   1.407       .  A
C1135      C1136   1.398       .  A
C1135      O1139   1.372       .  S
C1136      H1140   1.084       .  S
O1137      H1142   0.992       .  S
O1139      H1143   0.992       .  S
C1145      C1146   1.402       .  A
C1145      C1150   1.402       .  A
C1145      H1155   1.084       .  S
C1146      C1151   1.479       .  S
C1146      C1147   1.406       .  A
C1147      C1148   1.401       .  A
C1147      O1152   1.372       .  S
C1148      C1149   1.406       .  A
C1148      H1153   1.084       .  S
C1149      C1150   1.411       .  A
C1150      O1154   1.371       .  S
C1151      C1156   1.405       .  A
C1151      C1160   1.400       .  A
O1152      H1168   0.992       .  S
O1154      H1165   0.992       .  S
C1156      C1157   1.400       .  A
C1156      O1161   1.372       .  S
C1157      C1158   1.408       .  A
C1157      H1162   1.083       .  S
C1158      C1159   1.416       .  A
C1159      C1160   1.402       .  A
C1159      O1163   1.371       .  S
C1160      H1164   1.084       .  S
O1161      H1166   0.992       .  S
O1163      H1167   0.992       .  S
