geometry optimzed in LAMMPS
_audit_creation_date              2020-11-30 
_audit_creation_method            'lammps2cif' 
_symmetry_space_group_name_H-M    'P1' 
_symmetry_Int_Tables_number       1 
_symmetry_cell_setting            triclinic 
loop_ 
_symmetry_equiv_pos_as_xyz 
  x,y,z 
_cell_length_a                    45.2853085 
_cell_length_b                    45.33455737988598 
_cell_length_c                    45.44760582647324 
_cell_angle_alpha                 90.05526410010441 
_cell_angle_beta                  89.98784980558428 
_cell_angle_gamma                 89.79367472356985 
loop_ 
_atom_site_label 
_atom_site_type_symbol 
_atom_site_fract_x 
_atom_site_fract_y 
_atom_site_fract_z 
_atom_site_charge 
N1          N  0.00213416  0.05170220  0.24220735    -0.35800
N2          N  0.04359429  0.00322150  0.23982878    -0.56300
N3          N  0.99571588  0.96068520  0.23710133    -0.35800
N4          N  0.95436901  0.00902910  0.23846103    -0.56300
C5          C  0.02761498  0.06561853  0.23522863     0.27800
C6          C  0.97965903  0.06858572  0.23203768     0.27800
C7          C  0.01899849  0.94441956  0.22779721     0.27800
C8          C  0.97101939  0.94758608  0.22674669     0.27800
C9          C  0.06153129  0.02527833  0.24864829     0.36400
C10         C  0.05820443  0.97780771  0.24531699     0.36400
C11         C  0.93847907  0.03402071  0.24191888     0.36400
C12         C  0.93510856  0.98645062  0.24042429     0.36400
C13         C  0.02118556  0.09170934  0.22061338    -0.21100
C14         C  0.99094854  0.09372492  0.21888077    -0.21100
C15         C  0.00895163  0.92074734  0.21123419    -0.21100
C16         C  0.97861722  0.92256978  0.21087106    -0.21100
C17         C  0.08729370  0.01383330  0.26055327    -0.22100
C18         C  0.08519620  0.98369785  0.25842522    -0.22100
C19         C  0.90903372  0.02728675  0.24678292    -0.22100
C20         C  0.90691555  0.99707736  0.24595027    -0.22100
C21         C  0.05629634  0.05529154  0.24232529    -0.17500
C22         C  0.94926511  0.06231481  0.23516849    -0.17500
C23         C  0.94186288  0.95726839  0.23210967    -0.17500
C24         C  0.04877634  0.94990677  0.23533040    -0.17500
H25         H  0.03651020  0.10748731  0.21150206     0.15400
H26         H  0.97875322  0.11158751  0.20874378     0.15400
H27         H  0.02198008  0.90395169  0.20032392     0.15400
H28         H  0.96388285  0.90737866  0.19988908     0.15400
H29         H  0.10596503  0.02593820  0.26913392     0.13700
H30         H  0.10192178  0.96797751  0.26513086     0.13700
H31         H  0.89074480  0.04256161  0.24899769     0.13700
H32         H  0.88668673  0.98451332  0.24737630     0.13700
H33         H  0.00016924  0.03294582  0.25528860     0.27000
H34         H  0.99653637  0.97807581  0.25208114     0.27000
O35         O  0.30847239  0.24612543  0.20117395    -0.77700
C36         C  0.30911346  0.30167358  0.12521914     0.83400
O37         O  0.20960241  0.28523365  0.19607192    -0.78800
O38         O  0.22242716  0.27487286  0.09388956    -0.80300
O39         O  0.27742874  0.18386159  0.11925279    -0.80100
O40         O  0.29994780  0.19921495  0.18922797    -0.78700
Zn41       Zn  0.28023626  0.27085301  0.17746515     1.55700
O42         O  0.27159166  0.21939244  0.08569567    -0.80100
Cd43       Cd  0.26547245  0.20337872  0.15910982     1.59700
Cd44       Cd  0.21282457  0.25285950  0.16412937     1.59600
O45         O  0.22967916  0.18043932  0.17633488    -0.80100
O46         O  0.25517280  0.24609057  0.15307159    -1.90600
Cd47       Cd  0.26099028  0.25665969  0.11059669     1.59900
O48         O  0.19473728  0.21490483  0.18182688    -0.80000
O49         O  0.29454449  0.28769212  0.10570054    -0.78700
C50         C  0.22889838  0.30049090  0.20956894     0.83800
C51         C  0.31412134  0.21870381  0.20368021     0.83500
O52         O  0.30515374  0.29721843  0.15255657    -0.77600
C53         C  0.27791570  0.19282118  0.09261698     0.84300
O54         O  0.25643710  0.29719282  0.20477018    -0.77700
C55         C  0.20396771  0.18846351  0.18467568     0.84400
C56         C  0.19573734  0.27637541  0.10277615     0.84800
O57         O  0.18794334  0.26725904  0.12817828    -0.80200
O58         O  0.80537308  0.25602030  0.09575638    -0.77700
C59         C  0.80901687  0.20443696  0.17521450     0.83400
O60         O  0.70677507  0.21659972  0.10415043    -0.78800
O61         O  0.72466767  0.23424104  0.20928052    -0.80300
O62         O  0.77573628  0.32236878  0.17083886    -0.80100
O63         O  0.79037005  0.30259479  0.10101397    -0.78700
Zn64       Zn  0.77838090  0.23178026  0.12166331     1.55700
O65         O  0.77559130  0.28969178  0.20756690    -0.80100
Cd66       Cd  0.76018774  0.29919518  0.13497660     1.59700
Cd67       Cd  0.71025401  0.24844634  0.13655817     1.59600
O68         O  0.72204706  0.32020495  0.12232094    -0.80100
O69         O  0.75283041  0.25707272  0.14509616    -1.90600
Cd70       Cd  0.76155995  0.25073772  0.18792899     1.59900
O71         O  0.68732454  0.28550068  0.12172324    -0.80000
O72         O  0.79492083  0.22009310  0.19378870    -0.78700
C73         C  0.72642720  0.20215761  0.09010965     0.83800
C74         C  0.80696844  0.28325993  0.08907902     0.83500
O75         O  0.80431231  0.20645232  0.14764393    -0.77600
C76         C  0.78024774  0.31558085  0.19764835     0.84300
O77         O  0.75392939  0.20561403  0.09502390    -0.77700
C78         C  0.69558118  0.31206536  0.11786532     0.84400
C79         C  0.69842587  0.22882805  0.20071827     0.84800
O80         O  0.68989826  0.23328299  0.17434264    -0.80200
O81         O  0.79357731  0.81475759  0.14886630    -0.77700
C82         C  0.80022888  0.73294750  0.09653297     0.83400
O83         O  0.69831169  0.80455631  0.10892560    -0.78800
O84         O  0.71391123  0.69819673  0.12839724    -0.80300
O85         O  0.77345004  0.73403046  0.21177811    -0.80100
O86         O  0.78205874  0.80596670  0.19563036    -0.78700
Zn87       Zn  0.76977981  0.78608725  0.12473833     1.55700
O88         O  0.76711027  0.69856172  0.17838265    -0.80100
Cd89       Cd  0.75377524  0.77024744  0.19140746     1.59700
Cd90       Cd  0.70182742  0.77099946  0.13991137     1.59600
O91         O  0.71494374  0.77982596  0.21331305    -0.80100
O92         O  0.74439635  0.76214823  0.14909377    -1.90600
Cd93       Cd  0.75184576  0.71954984  0.14131662     1.59900
O94         O  0.68048869  0.78397596  0.17823201    -0.80000
O95         O  0.78400899  0.71416058  0.10956018    -0.78700
C96         C  0.71849371  0.81743693  0.09425363     0.83800
C97         C  0.79596981  0.82059517  0.17616403     0.83500
O98         O  0.79729709  0.76061139  0.10071319    -0.77600
C99         C  0.77555798  0.70718471  0.20365314     0.84300
O100        O  0.74570031  0.81131161  0.09775529    -0.77700
C101        C  0.68853004  0.78519510  0.20511154     0.84400
C102        C  0.68787302  0.70673061  0.12200833     0.84800
O103        O  0.68000231  0.73372863  0.12384397    -0.80200
O104        O  0.28802358  0.69496258  0.15358800    -0.77700
C105        C  0.29394431  0.76906411  0.21000062     0.83400
O106        O  0.18965024  0.70703435  0.19601395    -0.78800
O107        O  0.21377173  0.81019122  0.17809021    -0.80300
O108        O  0.25523071  0.77407808  0.08877245    -0.80100
O109        O  0.27747585  0.70586039  0.10695811    -0.78700
Zn110      Zn  0.26130536  0.71918506  0.17885418     1.55700
O111        O  0.26386983  0.80728511  0.12399865    -0.80100
Cd112      Cd  0.24382167  0.73630646  0.11209455     1.59700
Cd113      Cd  0.19500624  0.73939051  0.16457091     1.59600
O114        O  0.20598844  0.71844117  0.09398993    -0.80100
O115        O  0.23768262  0.74518995  0.15472412    -1.90600
Cd116      Cd  0.24963369  0.78684170  0.16230470     1.59900
O117        O  0.17107744  0.72616268  0.12787050    -0.80000
O118        O  0.28251713  0.78915761  0.19401841    -0.78700
C119        C  0.20835016  0.68937900  0.20729055     0.83800
C120        C  0.29227496  0.69164981  0.12611319     0.83500
O121        O  0.28703824  0.74200750  0.20700352    -0.77600
C122        C  0.26348733  0.79967689  0.09696899     0.84300
O123        O  0.23586089  0.69114218  0.20183942    -0.77700
C124        C  0.17920559  0.71725635  0.10249192     0.84400
C125        C  0.18733911  0.80336139  0.18481613     0.84800
O126        O  0.17711956  0.77747485  0.18143736    -0.80200
N127        N  0.32316054  0.94690848  0.89900207    -0.35800
N128        N  0.32034262  0.99285748  0.94329128    -0.56300
N129        N  0.32113274  0.03574122  0.89614941    -0.35800
N130        N  0.32818900  0.98955927  0.85164799    -0.56300
C131        C  0.32801248  0.93166829  0.92408303     0.27800
C132        C  0.33311559  0.93017171  0.87643471     0.27800
C133        C  0.32740107  0.05261302  0.91989262     0.27800
C134        C  0.33035752  0.05053331  0.87209612     0.27800
C135        C  0.30978868  0.96953884  0.95850542     0.36400
C136        C  0.31018655  0.01732713  0.95706433     0.36400
C137        C  0.32034594  0.96491362  0.83690850     0.36400
C138        C  0.31841154  0.01256606  0.83544615     0.36400
C139        C  0.34217364  0.90529367  0.91753211    -0.21100
C140        C  0.34549935  0.90439125  0.88737627    -0.21100
C141        C  0.34167942  0.07806334  0.91089242    -0.21100
C142        C  0.34355304  0.07674335  0.88063488    -0.21100
C143        C  0.29259902  0.97922364  0.98184110    -0.22100
C144        C  0.29284801  0.00951636  0.98092149    -0.22100
C145        C  0.30526777  0.97228819  0.81139511    -0.22100
C146        C  0.30402490  0.00253074  0.81048090    -0.22100
C147        C  0.31660647  0.93980814  0.95188903    -0.17500
C148        C  0.32707946  0.93605402  0.84650241    -0.17500
C149        C  0.32344255  0.04232735  0.84293252    -0.17500
C150        C  0.31774522  0.04641802  0.94880153    -0.17500
H151        H  0.34859450  0.88810326  0.93277177     0.15400
H152        H  0.35483610  0.88630003  0.87486231     0.15400
H153        H  0.34937846  0.09599889  0.92457698     0.15400
H154        H  0.35283232  0.09352191  0.86649212     0.15400
H155        H  0.28066310  0.96595772  0.99760233     0.13700
H156        H  0.28108813  0.02403077  0.99579654     0.13700
H157        H  0.29523939  0.95758045  0.79557263     0.13700
H158        H  0.29298102  0.01546675  0.79377398     0.13700
H159        H  0.30963604  0.96543988  0.89705939     0.27000
H160        H  0.30754295  0.01723484  0.89595277     0.27000
N161        N  0.00502311  0.33624128  0.94470675    -0.35800
N162        N  0.05280196  0.32997063  0.90316079    -0.56300
N163        N  0.00867213  0.33322663  0.85677874    -0.35800
N164        N  0.96103037  0.34384805  0.89817136    -0.56300
C165        C  0.02872532  0.34060672  0.96231287     0.27800
C166        C  0.98095232  0.34550783  0.95967491     0.27800
C167        C  0.03413820  0.33476803  0.84140430     0.27800
C168        C  0.98688565  0.34296505  0.83890928     0.27800
C169        C  0.06667032  0.32154169  0.92812408     0.36400
C170        C  0.06805208  0.31784470  0.88062798     0.36400
C171        C  0.94306369  0.33803707  0.92116670     0.36400
C172        C  0.94521998  0.33815765  0.87359214     0.36400
C173        C  0.01962474  0.35370927  0.98839873    -0.21100
C174        C  0.98937224  0.35644769  0.98686525    -0.21100
C175        C  0.02857596  0.34650910  0.81373923    -0.21100
C176        C  0.99863539  0.35140652  0.81207879    -0.21100
C177        C  0.09100175  0.30416755  0.92144838    -0.22100
C178        C  0.09176429  0.30164236  0.89132211    -0.22100
C179        C  0.91546158  0.32947278  0.91114817    -0.22100
C180        C  0.91679986  0.32969873  0.88091308    -0.22100
C181        C  0.05748598  0.32965017  0.95672096    -0.17500
C182        C  0.95152901  0.34039392  0.95097156    -0.17500
C183        C  0.95651521  0.34008725  0.84475162    -0.17500
C184        C  0.06130846  0.32246520  0.85063511    -0.17500
H185        H  0.03319322  0.35960676  0.00708097     0.15400
H186        H  0.97505829  0.36472700  0.00409490     0.15400
H187        H  0.04426905  0.35020450  0.79617927     0.15400
H188        H  0.98669359  0.35929778  0.79299618     0.15400
H189        H  0.10617375  0.29375460  0.93664930     0.13700
H190        H  0.10773397  0.28896178  0.87886579     0.13700
H191        H  0.89650220  0.32319255  0.92417129     0.13700
H192        H  0.89915425  0.32360835  0.86606605     0.13700
H193        H  0.00453904  0.32333452  0.92579780     0.27000
H194        H  0.00571691  0.32166592  0.87629891     0.27000
N195        N  0.67392908  0.01281011  0.93630364    -0.35800
N196        N  0.67302820  0.05523419  0.88875669    -0.56300
N197        N  0.68117331  0.00589155  0.84805379    -0.35800
N198        N  0.67947060  0.96347890  0.89538396    -0.56300
C199        C  0.66806681  0.03783820  0.95140138     0.27800
C200        C  0.67044117  0.98991053  0.95494888     0.27800
C201        C  0.67354160  0.02816274  0.82985259     0.27800
C202        C  0.67666279  0.98043258  0.83327137     0.27800
C203        C  0.67838571  0.07374337  0.91141937     0.36400
C204        C  0.68054084  0.06995410  0.86408445     0.36400
C205        C  0.68645108  0.94978046  0.92084324     0.36400
C206        C  0.68947844  0.94599775  0.87337171     0.36400
C207        C  0.66009398  0.03075779  0.97998318    -0.21100
C208        C  0.66149425  0.00048804  0.98220654    -0.21100
C209        C  0.66367911  0.01688971  0.80332121    -0.21100
C210        C  0.66521993  0.98666903  0.80561946    -0.21100
C211        C  0.68827305  0.10070491  0.90100047    -0.22100
C212        C  0.68967000  0.09828326  0.87092837    -0.22100
C213        C  0.70039734  0.92312684  0.91495219    -0.22100
C214        C  0.70268142  0.92093291  0.88491199    -0.22100
C215        C  0.67434041  0.06662609  0.94136784    -0.17500
C216        C  0.67959883  0.96060341  0.94926031    -0.17500
C217        C  0.68564011  0.95221943  0.84311510    -0.17500
C218        C  0.67868473  0.05819405  0.83547964    -0.17500
H219        H  0.65523187  0.04587519  0.99778981     0.15400
H220        H  0.65798207  0.98788945  0.00210351     0.15400
H221        H  0.65662871  0.02921548  0.78417002     0.15400
H222        H  0.65933717  0.97112295  0.78853865     0.15400
H223        H  0.69417659  0.11999463  0.91372322     0.13700
H224        H  0.69689788  0.11529411  0.85589215     0.13700
H225        H  0.70844906  0.90700677  0.93056917     0.13700
H226        H  0.71322800  0.90304104  0.87313164     0.13700
H227        H  0.68472081  0.01175082  0.91588410     0.27000
H228        H  0.69318268  0.00817192  0.86764007     0.27000
N229        N  0.03747763  0.65029413  0.90382053    -0.35800
N230        N  0.99163030  0.65633968  0.94821177    -0.56300
N231        N  0.94618089  0.66288083  0.90453171    -0.35800
N232        N  0.99150138  0.65836715  0.85993697    -0.56300
C233        C  0.05306044  0.65888041  0.92776333     0.27800
C234        C  0.05289904  0.65865797  0.87971404     0.27800
C235        C  0.93233196  0.67335081  0.92872145     0.27800
C236        C  0.93204445  0.67411415  0.88089431     0.27800
C237        C  0.01485416  0.64820888  0.96492652     0.36400
C238        C  0.96741184  0.65370626  0.96532332     0.36400
C239        C  0.01413170  0.64875727  0.84309545     0.36400
C240        C  0.96687684  0.65571515  0.84342047     0.36400
C241        C  0.07875707  0.67275594  0.91874879    -0.21100
C242        C  0.07862979  0.67266750  0.88846278    -0.21100
C243        C  0.90869130  0.69100794  0.92037280    -0.21100
C244        C  0.90865464  0.69167758  0.89011425    -0.21100
C245        C  0.00524303  0.63925040  0.99246840    -0.22100
C246        C  0.97513716  0.64302246  0.99281443    -0.22100
C247        C  0.00366691  0.63886237  0.81617057    -0.22100
C248        C  0.97367138  0.64353773  0.81628888    -0.22100
C249        C  0.04437640  0.65436088  0.95737009    -0.17500
C250        C  0.04404523  0.65359225  0.85022764    -0.17500
C251        C  0.93929229  0.66773433  0.85139683    -0.17500
C252        C  0.93979922  0.66588810  0.95789959    -0.17500
H253        H  0.09549241  0.68280933  0.93240260     0.15400
H254        H  0.09519102  0.68277395  0.87465425     0.15400
H255        H  0.89300178  0.70220256  0.93448237     0.15400
H256        H  0.89314695  0.70375576  0.87656027     0.15400
H257        H  0.01870624  0.63240025  0.01092965     0.13700
H258        H  0.96085144  0.63969446  0.01159273     0.13700
H259        H  0.01644960  0.63033648  0.79790518     0.13700
H260        H  0.95870815  0.63929057  0.79821981     0.13700
H261        H  0.01831854  0.63759594  0.90388348     0.27000
H262        H  0.96258508  0.64671496  0.90410871     0.27000
O263        O  0.29048570  0.73825960  0.60158355    -0.77700
C264        C  0.29497910  0.68222346  0.67778729     0.83400
O265        O  0.19199403  0.70217719  0.61128347    -0.78800
O266        O  0.21053853  0.71090308  0.71565046    -0.80300
O267        O  0.26763009  0.79933263  0.68422087    -0.80100
O268        O  0.28286495  0.78496012  0.61446867    -0.78700
Zn269      Zn  0.26413834  0.71427891  0.62770429     1.55700
O270        O  0.26297024  0.76448467  0.71866290    -0.80100
Cd271      Cd  0.25097151  0.78055235  0.64650491     1.59700
Cd272      Cd  0.19760971  0.73239246  0.64499007     1.59600
O273        O  0.21448095  0.80421265  0.63273343    -0.80100
O274        O  0.24045746  0.73843194  0.65361074    -1.90600
Cd275      Cd  0.24825497  0.72765721  0.69567166     1.59900
O276        O  0.17770675  0.77152287  0.63286000    -0.80000
O277        O  0.28083732  0.69548742  0.69813551    -0.78700
C278        C  0.21108965  0.68717185  0.59710222     0.83800
C279        C  0.29590453  0.76561306  0.59886023     0.83500
O280        O  0.29030703  0.68745216  0.65070475    -0.77600
C281        C  0.27032747  0.79042550  0.71064276     0.84300
O282        O  0.23864464  0.68974817  0.60176970    -0.77700
C283        C  0.18749690  0.79747911  0.62866045     0.84400
C284        C  0.18386967  0.70847915  0.70698432     0.84800
O285        O  0.17568288  0.71627695  0.68132953    -0.80200
N286        N  0.99995134  0.95411330  0.56319310    -0.35800
N287        N  0.04691367  0.99837363  0.56449313    -0.56300
N288        N  0.00135947  0.04263940  0.56122873    -0.35800
N289        N  0.95453350  0.99823110  0.55558327    -0.56300
C290        C  0.02481925  0.93848803  0.55764521     0.27800
C291        C  0.97700799  0.93832887  0.55249058     0.27800
C292        C  0.02572757  0.05927216  0.55680951     0.27800
C293        C  0.97773882  0.05912800  0.55351599     0.27800
C294        C  0.06095829  0.97459038  0.57569555     0.36400
C295        C  0.06189618  0.02228336  0.57393824     0.36400
C296        C  0.93785535  0.97451469  0.56256680     0.36400
C297        C  0.93859852  0.02231551  0.56315399     0.36400
C298        C  0.01776303  0.91299025  0.54237793    -0.21100
C299        C  0.98753917  0.91290743  0.53908411    -0.21100
C300        C  0.01745374  0.08637557  0.54520092    -0.21100
C301        C  0.98706802  0.08642721  0.54354792    -0.21100
C302        C  0.08483163  0.98341573  0.59261111    -0.22100
C303        C  0.08552294  0.01366703  0.59135754    -0.22100
C304        C  0.91114335  0.98368704  0.57445687    -0.22100
C305        C  0.91147610  0.01399391  0.57445165    -0.22100
C306        C  0.05292195  0.94523804  0.56927472    -0.17500
C307        C  0.94691630  0.94497599  0.55778307    -0.17500
C308        C  0.94823645  0.05167307  0.55976816    -0.17500
C309        C  0.05447935  0.05162085  0.56643020    -0.17500
H310        H  0.03276856  0.89588244  0.53500539     0.15400
H311        H  0.97471917  0.89573538  0.52864226     0.15400
H312        H  0.03166381  0.10467557  0.53962856     0.15400
H313        H  0.97331887  0.10476547  0.53672605     0.15400
H314        H  0.09986470  0.96970457  0.60509359     0.13700
H315        H  0.10112557  0.02762618  0.60274114     0.13700
H316        H  0.89358709  0.97024154  0.58326517     0.13700
H317        H  0.89404924  0.02824813  0.58255046     0.13700
H318        H  0.99840680  0.97219882  0.57729823     0.27000
H319        H  0.00036897  0.02310926  0.57317132     0.27000
O320        O  0.30463095  0.29775506  0.64724016    -0.77700
C321        C  0.31029697  0.21753132  0.59418155     0.83400
O322        O  0.20746444  0.28683434  0.60998686    -0.78800
O323        O  0.22507722  0.18157192  0.62562944    -0.80300
O324        O  0.27912136  0.21700058  0.71140824    -0.80100
O325        O  0.29727998  0.28624681  0.69423363    -0.78700
Zn326      Zn  0.27948293  0.27013660  0.62340444     1.55700
O327        O  0.27897167  0.18184238  0.67691631    -0.80100
Cd328      Cd  0.26498426  0.25446601  0.69029524     1.59700
Cd329      Cd  0.21272618  0.25409933  0.64128934     1.59600
O330        O  0.22827403  0.26911180  0.71265728    -0.80100
O331        O  0.25539076  0.24554580  0.64832574    -1.90600
Cd332      Cd  0.26315908  0.20283946  0.63964240     1.59900
O333        O  0.19198677  0.26673516  0.67955377    -0.80000
O334        O  0.29479641  0.19816715  0.60722412    -0.78700
C335        C  0.22656656  0.30039414  0.59455196     0.83800
C336        C  0.30995870  0.30150084  0.67447163     0.83500
O337        O  0.30674832  0.24505096  0.59875860    -0.77600
C338        C  0.28349549  0.19048908  0.70321812     0.84300
O339        O  0.25414666  0.29542343  0.59716547    -0.77700
C340        C  0.20124280  0.27178058  0.70548962     0.84400
C341        C  0.19856468  0.19050481  0.62225862     0.84800
O342        O  0.19083382  0.21704687  0.62726263    -0.80200
O343        O  0.81326460  0.20653552  0.64628408    -0.77700
C344        C  0.82038184  0.28820278  0.69728919     0.83400
O345        O  0.71749870  0.21824711  0.68675324    -0.78800
O346        O  0.73365082  0.32299630  0.67131208    -0.80300
O347        O  0.78672394  0.28637726  0.58199866    -0.80100
O348        O  0.80065641  0.21535476  0.59977842    -0.78700
Zn349      Zn  0.78880933  0.23461146  0.67095982     1.55700
O350        O  0.78245886  0.32252872  0.61523899    -0.80100
Cd351      Cd  0.77070061  0.24947023  0.60407896     1.59700
Cd352      Cd  0.72108225  0.25115515  0.65618801     1.59600
O353        O  0.73240635  0.23470250  0.58399020    -0.80100
O354        O  0.76326372  0.25892613  0.64653806    -1.90600
Cd355      Cd  0.77043503  0.30180216  0.65387342     1.59900
O356        O  0.69824263  0.23825922  0.61928319    -0.80000
O357        O  0.80443077  0.30698595  0.68374726    -0.78700
C358        C  0.73688550  0.20430353  0.70146269     0.83800
C359        C  0.81534897  0.20099265  0.61888078     0.83500
O360        O  0.81673430  0.26046925  0.69426189    -0.77600
C361        C  0.78888750  0.31344728  0.58946107     0.84300
O362        O  0.76445315  0.20895776  0.69824306    -0.77700
C363        C  0.70593805  0.23193306  0.59307347     0.84400
C364        C  0.70818911  0.31370049  0.67870253     0.84800
O365        O  0.70032809  0.28713001  0.67455983    -0.80200
O366        O  0.70160514  0.74192832  0.59402412    -0.77700
C367        C  0.78422774  0.69216257  0.59751503     0.83400
O368        O  0.70645099  0.71190448  0.69328631    -0.78800
O369        O  0.81351718  0.73373426  0.68119023    -0.80300
O370        O  0.77778016  0.81073477  0.61370127    -0.80100
O371        O  0.70728442  0.78984797  0.60364246    -0.78700
Zn372      Zn  0.72861340  0.72093619  0.62246355     1.55700
O373        O  0.81448581  0.77920035  0.62285924    -0.80100
Cd374      Cd  0.74153880  0.79049609  0.63367575     1.59700
Cd375      Cd  0.73921472  0.74327143  0.68808527     1.59600
O376        O  0.72923199  0.81565096  0.67004731    -0.80100
O377        O  0.75058907  0.74907917  0.64596085    -1.90600
Cd378      Cd  0.79403077  0.74279019  0.64099289     1.59900
O379        O  0.72444157  0.78240552  0.70598434    -0.80000
O380        O  0.80197296  0.70847694  0.61188648    -0.78700
C381        C  0.69520767  0.69441746  0.67448654     0.83800
C382        C  0.69483989  0.76888024  0.58970095     0.83500
O383        O  0.75631435  0.69467721  0.59988447    -0.77600
C384        C  0.80500590  0.80348862  0.61237437     0.84300
O385        O  0.70254263  0.69518022  0.64745892    -0.77700
C386        C  0.72288835  0.80880221  0.69653772     0.84400
C387        C  0.80302932  0.72855522  0.70669602     0.84800
O388        O  0.77549558  0.73001367  0.71233074    -0.80200
N389        N  0.50582478  0.45281124  0.73287848    -0.35800
N390        N  0.54813907  0.50017161  0.73707380    -0.56300
N391        N  0.50154515  0.54433087  0.73388728    -0.35800
N392        N  0.45916128  0.49720747  0.72757760    -0.56300
C393        C  0.53141097  0.43840425  0.72692462     0.27800
C394        C  0.48369035  0.43685769  0.72086670     0.27800
C395        C  0.52549064  0.56120048  0.72847537     0.27800
C396        C  0.47762716  0.55979735  0.72492799     0.27800
C397        C  0.56558315  0.47712108  0.74442626     0.36400
C398        C  0.56362832  0.52480333  0.74326465     0.36400
C399        C  0.44253429  0.47255263  0.72790356     0.36400
C400        C  0.44018462  0.52015824  0.72993286     0.36400
C401        C  0.52529148  0.41298273  0.71100529    -0.21100
C402        C  0.49516683  0.41183349  0.70754078    -0.21100
C403        C  0.51662250  0.58808496  0.71684791    -0.21100
C404        C  0.48636369  0.58728565  0.71480834    -0.21100
C405        C  0.59184376  0.48728266  0.75643103    -0.22100
C406        C  0.59084518  0.51752257  0.75505829    -0.22100
C407        C  0.41290342  0.47981383  0.73062589    -0.22100
C408        C  0.41140198  0.50999266  0.73186697    -0.22100
C409        C  0.55993129  0.44767815  0.73581685    -0.17500
C410        C  0.45336244  0.44397130  0.72209067    -0.17500
C411        C  0.44812593  0.54998729  0.72633625    -0.17500
C412        C  0.55499259  0.55336513  0.73473879    -0.17500
H413        H  0.54078243  0.39712855  0.70208700     0.15400
H414        H  0.48314402  0.39483878  0.69591002     0.15400
H415        H  0.53046450  0.60647835  0.71065444     0.15400
H416        H  0.47246593  0.60490987  0.70659435     0.15400
H417        H  0.61036930  0.47430979  0.76417521     0.13700
H418        H  0.60832773  0.53244489  0.76141930     0.13700
H419        H  0.39423471  0.46496869  0.73061920     0.13700
H420        H  0.39130273  0.52292844  0.73289875     0.13700
H421        H  0.50334350  0.47116581  0.74646283     0.27000
H422        H  0.50130666  0.52441810  0.74520816     0.27000
N423        N  0.49245349  0.55140441  0.06756092    -0.35800
N424        N  0.45034382  0.50319555  0.06525191    -0.56300
N425        N  0.49783933  0.46029307  0.06814726    -0.35800
N426        N  0.54005653  0.50809395  0.07251924    -0.56300
C427        C  0.46692259  0.56566234  0.07389072     0.27800
C428        C  0.51482046  0.56838740  0.07771319     0.27800
C429        C  0.47457592  0.44359817  0.07653545     0.27800
C430        C  0.52264726  0.44579481  0.07644624     0.27800
C431        C  0.43155836  0.52591054  0.06069053     0.36400
C432        C  0.43427077  0.47827954  0.06282719     0.36400
C433        C  0.55555642  0.53313866  0.06797318     0.36400
C434        C  0.55846904  0.48542923  0.06594545     0.36400
C435        C  0.47318835  0.59230117  0.08756012    -0.21100
C436        C  0.50332117  0.59383091  0.09031771    -0.21100
C437        C  0.48476180  0.41807727  0.08999966    -0.21100
C438        C  0.51503587  0.41958239  0.09018219    -0.21100
C439        C  0.40349169  0.51535542  0.05465938    -0.22100
C440        C  0.40519835  0.48514897  0.05610172    -0.22100
C441        C  0.58373443  0.52637577  0.05813478    -0.22100
C442        C  0.58552404  0.49618248  0.05666740    -0.22100
C443        C  0.43811954  0.55549414  0.06751115    -0.17500
C444        C  0.54528014  0.56181927  0.07485195    -0.17500
C445        C  0.55185843  0.45535258  0.07092014    -0.17500
C446        C  0.44448408  0.45012176  0.07124466    -0.17500
H447        H  0.45769849  0.60884194  0.09521298     0.15400
H448        H  0.51519212  0.61159435  0.10084588     0.15400
H449        H  0.47180154  0.40016782  0.09888588     0.15400
H450        H  0.52962312  0.40330205  0.09980067     0.15400
H451        H  0.38351162  0.52809950  0.05135678     0.13700
H452        H  0.38682124  0.47010350  0.05399014     0.13700
H453        H  0.60121529  0.54160803  0.05259503     0.13700
H454        H  0.60469629  0.48364783  0.04979240     0.13700
H455        H  0.49459916  0.53232149  0.05497492     0.27000
H456        H  0.49707731  0.47908434  0.05502107     0.27000
N457        N  0.84015591  0.50926816  0.43681805    -0.35800
N458        N  0.84394213  0.55645235  0.39333903    -0.56300
N459        N  0.83725397  0.51120450  0.34842611    -0.35800
N460        N  0.83769931  0.46418452  0.39228082    -0.56300
C461        C  0.84858863  0.53255691  0.45325961     0.27800
C462        C  0.84520063  0.48475421  0.45296939     0.27800
C463        C  0.84544402  0.53508074  0.33257772     0.27800
C464        C  0.84302223  0.48702611  0.33186779     0.27800
C465        C  0.83667082  0.57190278  0.41773116     0.36400
C466        C  0.83520471  0.57300004  0.37019954     0.36400
C467        C  0.82868297  0.44859955  0.41598746     0.36400
C468        C  0.82793488  0.44952667  0.36830722     0.36400
C469        C  0.85976031  0.52283519  0.47992717    -0.21100
C470        C  0.85788383  0.49254220  0.47964935    -0.21100
C471        C  0.85719490  0.52597051  0.30589413    -0.21100
C472        C  0.85577269  0.49561245  0.30548488    -0.21100
C473        C  0.82371145  0.59853073  0.41020081    -0.22100
C474        C  0.82246294  0.59910961  0.38003241    -0.22100
C475        C  0.81304364  0.42396440  0.40707986    -0.22100
C476        C  0.81248059  0.42459151  0.37686589    -0.22100
C477        C  0.84167562  0.56205911  0.44664702    -0.17500
C478        C  0.83519077  0.45626510  0.44541152    -0.17500
C479        C  0.83415759  0.45796426  0.33897675    -0.17500
C480        C  0.83938730  0.56468595  0.34050671    -0.17500
H481        H  0.86733849  0.53628187  0.49809639     0.15400
H482        H  0.86406922  0.47803810  0.49752755     0.15400
H483        H  0.86533760  0.53979950  0.28829299     0.15400
H484        H  0.86270728  0.48154297  0.28750041     0.15400
H485        H  0.81534716  0.61540402  0.42489921     0.13700
H486        H  0.81246446  0.61646670  0.36709746     0.13700
H487        H  0.80258293  0.40756591  0.42082033     0.13700
H488        H  0.80138051  0.40875868  0.36295389     0.13700
H489        H  0.82719542  0.51045158  0.41795728     0.27000
H490        H  0.82460655  0.51164552  0.36755097     0.27000
N491        N  0.53534913  0.82368555  0.40187967    -0.35800
N492        N  0.48931343  0.82572450  0.35776095    -0.56300
N493        N  0.44628059  0.82332229  0.40562117    -0.35800
N494        N  0.49246087  0.82408069  0.44963972    -0.56300
C495        C  0.55075493  0.83124615  0.37756566     0.27800
C496        C  0.55245859  0.82989667  0.42539148     0.27800
C497        C  0.42812551  0.82689677  0.38230603     0.27800
C498        C  0.42977684  0.82628853  0.43022697     0.27800
C499        C  0.51277114  0.81787590  0.34105496     0.36400
C500        C  0.46506939  0.81661135  0.34308598     0.36400
C501        C  0.51710502  0.81732128  0.46494583     0.36400
C502        C  0.46942876  0.81709180  0.46712922     0.36400
C503        C  0.57767646  0.84322317  0.38582783    -0.21100
C504        C  0.57892069  0.84194829  0.41607086    -0.21100
C505        C  0.39971545  0.83275876  0.39217899    -0.21100
C506        C  0.40074727  0.83231980  0.42246327    -0.21100
C507        C  0.50332698  0.80383258  0.31564654    -0.22100
C508        C  0.47308485  0.80339576  0.31675554    -0.22100
C509        C  0.50979218  0.80708715  0.49272108    -0.22100
C510        C  0.47950902  0.80700587  0.49413909    -0.22100
C511        C  0.54243119  0.82396779  0.34847163    -0.17500
C512        C  0.54606582  0.82143288  0.45447841    -0.17500
C513        C  0.43944580  0.81971443  0.45904653    -0.17500
C514        C  0.43575610  0.82054288  0.35284963    -0.17500
H515        H  0.59508434  0.85105326  0.37154509     0.15400
H516        H  0.59743353  0.84850052  0.42960741     0.15400
H517        H  0.38001811  0.83553800  0.37896794     0.15400
H518        H  0.38201176  0.83480792  0.43706198     0.15400
H519        H  0.51665433  0.79418250  0.29837909     0.13700
H520        H  0.45870310  0.79377913  0.30035816     0.13700
H521        H  0.52468679  0.80034582  0.51010272     0.13700
H522        H  0.46643833  0.79999636  0.51279019     0.13700
H523        H  0.51656258  0.81060066  0.40227631     0.27000
H524        H  0.46741856  0.81465365  0.40468635     0.27000
N525        N  0.16106186  0.44927839  0.40284324    -0.35800
N526        N  0.15369097  0.49462285  0.44704907    -0.56300
N527        N  0.15007836  0.54004444  0.40168657    -0.35800
N528        N  0.15781241  0.49428712  0.35765419    -0.56300
C529        C  0.16972715  0.43438816  0.42716377     0.27800
C530        C  0.17128980  0.43409348  0.37927957     0.27800
C531        C  0.15652122  0.55641847  0.42573221     0.27800
C532        C  0.15751362  0.55630371  0.37783687     0.27800
C533        C  0.15354320  0.47083505  0.46491912     0.36400
C534        C  0.14821237  0.51829654  0.46424624     0.36400
C535        C  0.15739676  0.47000174  0.34043088     0.36400
C536        C  0.15189762  0.51738218  0.33986622     0.36400
C537        C  0.18478368  0.40898285  0.41885534    -0.21100
C538        C  0.18579014  0.40882903  0.38867137    -0.21100
C539        C  0.16736333  0.58364860  0.41701908    -0.21100
C540        C  0.16811529  0.58351830  0.38683438    -0.21100
C541        C  0.14730253  0.47937522  0.49356183    -0.22100
C542        C  0.14393142  0.50945966  0.49313532    -0.22100
C543        C  0.15074152  0.47760378  0.31166742    -0.22100
C544        C  0.14707541  0.50764736  0.31133306    -0.22100
C545        C  0.16368529  0.44258222  0.45660154    -0.17500
C546        C  0.16706808  0.44191075  0.34951172    -0.17500
C547        C  0.15504776  0.54717757  0.34819023    -0.17500
C548        C  0.15265933  0.54769997  0.45533723    -0.17500
H549        H  0.19410088  0.39215982  0.43297620     0.15400
H550        H  0.19604410  0.39195579  0.37521488     0.15400
H551        H  0.17440902  0.60168985  0.43092829     0.15400
H552        H  0.17615088  0.60130340  0.37318318     0.15400
H553        H  0.14690665  0.46564662  0.51302119     0.13700
H554        H  0.14049058  0.52338109  0.51219924     0.13700
H555        H  0.14974252  0.46315084  0.29272537     0.13700
H556        H  0.14261393  0.52092873  0.29205133     0.13700
H557        H  0.14683970  0.46729881  0.40224092     0.27000
H558        H  0.13933441  0.51979248  0.40151313     0.27000
N559        N  0.50927970  0.17312779  0.44496828    -0.35800
N560        N  0.55509280  0.17283122  0.40023360    -0.56300
N561        N  0.50860710  0.17041269  0.35620719    -0.35800
N562        N  0.46309786  0.16589356  0.40086108    -0.56300
C563        C  0.53381044  0.16948220  0.46160060     0.27800
C564        C  0.48588469  0.16587913  0.46193103     0.27800
C565        C  0.53290271  0.16497669  0.33973088     0.27800
C566        C  0.48493239  0.16248810  0.33995728     0.27800
C567        C  0.57046146  0.18299116  0.42359134     0.36400
C568        C  0.57008586  0.18140019  0.37602117     0.36400
C569        C  0.44609620  0.17132092  0.42468790     0.36400
C570        C  0.44579426  0.17072603  0.37711370     0.36400
C571        C  0.52586789  0.15934108  0.48928801    -0.21100
C572        C  0.49557274  0.15740836  0.48958859    -0.21100
C573        C  0.52452817  0.15271421  0.31301413    -0.21100
C574        C  0.49417108  0.15154131  0.31301632    -0.21100
C575        C  0.59526210  0.19813179  0.41420598    -0.22100
C576        C  0.59498096  0.19720524  0.38404792    -0.22100
C577        C  0.41763091  0.17865795  0.41608744    -0.22100
C578        C  0.41746124  0.17834589  0.38586267    -0.22100
C579        C  0.56266649  0.17786402  0.45321040    -0.17500
C580        C  0.45598323  0.16961305  0.45405759    -0.17500
C581        C  0.45528544  0.16784393  0.34770486    -0.17500
C582        C  0.56180566  0.17423626  0.34692627    -0.17500
H583        H  0.54029513  0.15448627  0.50764554     0.15400
H584        H  0.48212883  0.15092661  0.50817384     0.15400
H585        H  0.53873109  0.14622829  0.29496201     0.15400
H586        H  0.48040351  0.14400109  0.29507075     0.15400
H587        H  0.61152140  0.20930594  0.42757671     0.13700
H588        H  0.61097260  0.20762222  0.36980262     0.13700
H589        H  0.39904350  0.18405990  0.43008927     0.13700
H590        H  0.39870947  0.18337076  0.37196200     0.13700
H591        H  0.50822237  0.18384629  0.42491825     0.27000
H592        H  0.50792072  0.18292794  0.37524399     0.27000
C593        C  0.64191023  0.80210644  0.54196273     0.21200
C594        C  0.62555230  0.82528627  0.52963060    -0.38700
C595        C  0.60540642  0.81721512  0.50775070     0.20100
C596        C  0.60187344  0.78821588  0.49882541     0.22800
C597        C  0.61821207  0.76497161  0.51120334    -0.39200
C598        C  0.63836505  0.77308094  0.53316304     0.21600
N599        N  0.66235343  0.80412993  0.56317891    -0.32500
C600        C  0.67195954  0.77623637  0.56800259    -0.10000
C601        C  0.65747029  0.75616171  0.54975197    -0.28900
N602        N  0.58078729  0.78629411  0.47820996    -0.45400
C603        C  0.57090203  0.81421194  0.47411015    -0.04700
C604        C  0.58564491  0.83417744  0.49206748    -0.22100
H605        H  0.62818037  0.84792466  0.53671887     0.19700
H606        H  0.61529261  0.74228199  0.50439383     0.18500
H607        H  0.66057110  0.73249727  0.54870581     0.14800
H608        H  0.58191015  0.85770244  0.49383618     0.14700
H609        H  0.66933602  0.82335148  0.57375114     0.32800
H610        H  0.57309335  0.76717093  0.46796406     0.35600
C611        C  0.83572631  0.61604866  0.50377512     0.21200
C612        C  0.84372785  0.64026380  0.52132556    -0.38700
C613        C  0.82314290  0.64846656  0.54300229     0.20100
C614        C  0.79656734  0.63385137  0.54654805     0.22800
C615        C  0.78875753  0.60954681  0.52930249    -0.39200
C616        C  0.80937424  0.60119458  0.50796573     0.21600
N617        N  0.85092232  0.60421244  0.48119522    -0.32500
C618        C  0.83406632  0.58159672  0.47143765    -0.10000
C619        C  0.80811849  0.57898887  0.48752859    -0.28900
N620        N  0.77991145  0.64701796  0.56711761    -0.45400
C621        C  0.79597566  0.67010933  0.57697104    -0.04700
C622        C  0.82323899  0.67163094  0.56271738    -0.22100
H623        H  0.86417699  0.65210223  0.51805020     0.19700
H624        H  0.76790508  0.59826065  0.53197613     0.18500
H625        H  0.79056637  0.56315963  0.48434478     0.14800
H626        H  0.84006774  0.68832903  0.56528729     0.14700
H627        H  0.87133298  0.61097606  0.47295218     0.32800
H628        H  0.75855584  0.64114623  0.57348199     0.35600
C629        C  0.60794474  0.59995387  0.70043721     0.21200
C630        C  0.62450107  0.61107864  0.67694248    -0.38700
C631        C  0.64199322  0.63561489  0.68340734     0.20100
C632        C  0.64289125  0.64824931  0.71113690     0.22800
C633        C  0.62597515  0.63730822  0.73463421    -0.39200
C634        C  0.60850047  0.61259456  0.72819430     0.21600
N635        N  0.58963584  0.57682140  0.69980872    -0.32500
C636        C  0.57835408  0.57468255  0.72727438    -0.10000
C637        C  0.58943147  0.59661484  0.74570491    -0.28900
N638        N  0.66190073  0.67097722  0.71160923    -0.45400
C639        C  0.67308731  0.67271367  0.68396459    -0.04700
C640        C  0.66107063  0.65111521  0.66575872    -0.22100
H641        H  0.62396447  0.60120290  0.65525499     0.19700
H642        H  0.62653330  0.64716278  0.75632609     0.18500
H643        H  0.58383593  0.60061253  0.76851367     0.14800
H644        H  0.66595057  0.64706004  0.64278711     0.14700
H645        H  0.58454150  0.56362672  0.68166082     0.32800
H646        H  0.66706857  0.68433216  0.72961593     0.35600
C647        C  0.80426844  0.37706895  0.54595266     0.21200
C648        C  0.80233626  0.40684624  0.53783166    -0.38700
C649        C  0.81482903  0.41401352  0.51056273     0.20100
C650        C  0.82853415  0.39320649  0.49287825     0.22800
C651        C  0.83035372  0.36335210  0.50095418    -0.39200
C652        C  0.81745790  0.35607213  0.52807627     0.21600
N653        N  0.79311665  0.36454965  0.57025781    -0.32500
C654        C  0.79874664  0.33528592  0.56769008    -0.10000
C655        C  0.81398467  0.32909298  0.54169010    -0.28900
N656        N  0.83804910  0.40556865  0.46774630    -0.45400
C657        C  0.83009514  0.43441210  0.46929968    -0.04700
C658        C  0.81555855  0.44045727  0.49575040    -0.22100
H659        H  0.79140645  0.42312919  0.55149264     0.19700
H660        H  0.84048813  0.34691974  0.48687676     0.18500
H661        H  0.82119277  0.30775326  0.53369671     0.14800
H662        H  0.80620141  0.46128244  0.50286024     0.14700
H663        H  0.78159313  0.37515618  0.58716815     0.32800
H664        H  0.84907007  0.39498486  0.45049962     0.35600
C665        C  0.60535553  0.19879274  0.51617827     0.21200
C666        C  0.61097737  0.21361510  0.54259808    -0.38700
C667        C  0.64036370  0.21321801  0.55202334     0.20100
C668        C  0.66257893  0.19926982  0.53627893     0.22800
C669        C  0.65682446  0.18380303  0.51013315    -0.39200
C670        C  0.62730797  0.18414802  0.50072047     0.21600
N671        N  0.57969010  0.19795305  0.50153640    -0.32500
C672        C  0.58513719  0.18252267  0.47656796    -0.10000
C673        C  0.61459012  0.17325062  0.47543013    -0.28900
N674        N  0.68898279  0.20412102  0.54884848    -0.45400
C675        C  0.68330457  0.22103163  0.57282470    -0.04700
C676        C  0.65325650  0.22688334  0.57570335    -0.22100
H677        H  0.59388448  0.22541021  0.55445394     0.19700
H678        H  0.67415940  0.17318147  0.49755263     0.18500
H679        H  0.62542136  0.16108931  0.45796691     0.14800
H680        H  0.64246195  0.24020792  0.59233206     0.14700
H681        H  0.55994426  0.20826349  0.50763148     0.32800
H682        H  0.70954392  0.19662297  0.54150329     0.35600
C683        C  0.66515801  0.37463966  0.70400469     0.21200
C684        C  0.65633844  0.40422233  0.70537794    -0.38700
C685        C  0.62847182  0.40939608  0.71768714     0.20100
C686        C  0.61094804  0.38700964  0.72861604     0.22800
C687        C  0.61963795  0.35729020  0.72699291    -0.39200
C688        C  0.64728155  0.35201292  0.71396163     0.21600
N689        N  0.68964646  0.36388995  0.69119716    -0.32500
C690        C  0.68706777  0.33418307  0.69237931    -0.10000
C691        C  0.66104164  0.32589656  0.70657280    -0.28900
N692        N  0.58487247  0.39779080  0.73796056    -0.45400
C693        C  0.58551694  0.42716767  0.73215271    -0.04700
C694        C  0.61245415  0.43504841  0.71948421    -0.22100
H695        H  0.66968819  0.42182561  0.69643013     0.19700
H696        H  0.60545220  0.33955333  0.73423099     0.18500
H697        H  0.65286020  0.30377587  0.71010714     0.14800
H698        H  0.61893631  0.45646238  0.71124812     0.14700
H699        H  0.70638953  0.37599216  0.68106195     0.32800
H700        H  0.56743279  0.38573416  0.74690435     0.35600
C701        C  0.37200535  0.21007765  0.54621936     0.21200
C702        C  0.39740191  0.21939054  0.53146363    -0.38700
C703        C  0.40973533  0.19897093  0.51192927     0.20100
C704        C  0.39759980  0.17137543  0.50712400     0.22800
C705        C  0.37232153  0.16183539  0.52229067    -0.39200
C706        C  0.36007592  0.18227939  0.54214910     0.21600
N707        N  0.35572610  0.22592679  0.56513502    -0.32500
C708        C  0.33334920  0.20812076  0.57349953    -0.10000
C709        C  0.33534338  0.18057086  0.55983275    -0.28900
N710        N  0.41274401  0.15684187  0.48612380    -0.45400
C711        C  0.43467690  0.17538471  0.47795484    -0.04700
C712        C  0.43362125  0.20172018  0.49359759    -0.22100
H713        H  0.40661288  0.24116743  0.53460753     0.19700
H714        H  0.36266692  0.14034649  0.51857865     0.18500
H715        H  0.32040680  0.16212120  0.56205336     0.14800
H716        H  0.44786587  0.22067496  0.49109725     0.14700
H717        H  0.35960699  0.24758759  0.57194567     0.32800
H718        H  0.40825183  0.13595144  0.47755082     0.35600
C719        C  0.20004159  0.39476096  0.50740162     0.21200
C720        C  0.22424515  0.38071606  0.52054834    -0.38700
C721        C  0.21735253  0.35851956  0.54075042     0.20100
C722        C  0.18854753  0.35091554  0.54747837     0.22800
C723        C  0.16426189  0.36494527  0.53422593    -0.39200
C724        C  0.17116208  0.38714922  0.51387997     0.21600
N725        N  0.20085284  0.41596175  0.48690304    -0.32500
C726        C  0.17233934  0.42177690  0.48009390    -0.10000
C727        C  0.15307293  0.40439615  0.49649138    -0.28900
N728        N  0.18803281  0.32907526  0.56745082    -0.45400
C729        C  0.21673127  0.32276774  0.57331571    -0.04700
C730        C  0.23563330  0.34065378  0.55706450    -0.22100
H731        H  0.24679989  0.38649682  0.51525571     0.19700
H732        H  0.14171625  0.35887428  0.53920642     0.18500
H733        H  0.12921495  0.40396073  0.49526296     0.14800
H734        H  0.25953614  0.34069335  0.55730807     0.14700
H735        H  0.21962374  0.42545620  0.47754805     0.32800
H736        H  0.16936787  0.31911585  0.57652312     0.35600
C737        C  0.36195669  0.36007890  0.67952879     0.21200
C738        C  0.37902572  0.38362680  0.66926521    -0.38700
C739        C  0.39878141  0.39565328  0.68964039     0.20100
C740        C  0.40147084  0.38494911  0.71806173     0.22800
C741        C  0.38418188  0.36151344  0.72842260    -0.39200
C742        C  0.36425590  0.34956975  0.70804300     0.21600
N743        N  0.34208227  0.34451680  0.66419848    -0.32500
C744        C  0.33152803  0.32399333  0.68305976    -0.10000
C745        C  0.34464323  0.32653636  0.71072410    -0.28900
N746        N  0.42179990  0.40031974  0.73310327    -0.45400
C747        C  0.43182112  0.42097952  0.71411047    -0.04700
C748        C  0.41805529  0.41883884  0.68682155    -0.22100
H749        H  0.37709296  0.39193775  0.64702634     0.19700
H750        H  0.38612922  0.35318627  0.75065245     0.18500
H751        H  0.34086697  0.31293470  0.72991074     0.14800
H752        H  0.42145188  0.43266642  0.66772841     0.14700
H753        H  0.33623483  0.34751771  0.64216424     0.32800
H754        H  0.42807880  0.39739739  0.75502320     0.35600
C755        C  0.88400523  0.89632317  0.56251047     0.21200
C756        C  0.85380271  0.88917862  0.56346003    -0.38700
C757        C  0.84681828  0.86207431  0.57673985     0.20100
C758        C  0.86838388  0.84325076  0.58749645     0.22800
C759        C  0.89848016  0.85043427  0.58663834    -0.39200
C760        C  0.90533869  0.87782800  0.57413219     0.21600
N761        N  0.89614993  0.92181502  0.55345532    -0.32500
C762        C  0.92532384  0.92008570  0.56036748    -0.10000
C763        C  0.93177420  0.89266805  0.57299430    -0.28900
N764        N  0.85614387  0.81969400  0.60052148    -0.45400
C765        C  0.82651415  0.82367393  0.59866213    -0.04700
C766        C  0.81979849  0.84980980  0.58376646    -0.22100
H767        H  0.83691732  0.90421213  0.55566945     0.19700
H768        H  0.91521811  0.83631275  0.59623269     0.18500
H769        H  0.95269294  0.88521894  0.58184634     0.14800
H770        H  0.79814535  0.85907695  0.57958885     0.14700
H771        H  0.88498335  0.93948394  0.54374240     0.32800
H772        H  0.86730773  0.80255458  0.61116914     0.35600
C773        C  0.89282163  0.10758285  0.56730454     0.21200
C774        C  0.86909859  0.12585263  0.55914149    -0.38700
C775        C  0.85820048  0.14453345  0.58133398     0.20100
C776        C  0.86981603  0.14469374  0.60952437     0.22800
C777        C  0.89355965  0.12658954  0.61761501    -0.39200
C778        C  0.90464156  0.10822729  0.59541527     0.21600
N779        N  0.90702401  0.08759519  0.55051906    -0.32500
C780        C  0.92804067  0.07580205  0.56820041    -0.10000
C781        C  0.92731796  0.08809196  0.59622919    -0.28900
N782        N  0.85573465  0.16443606  0.62655314    -0.45400
C783        C  0.83524394  0.17728830  0.60901342    -0.04700
C784        C  0.83600241  0.16540017  0.58066583    -0.22100
H785        H  0.85990128  0.12563427  0.53716331     0.19700
H786        H  0.90280446  0.12685185  0.63957529     0.18500
H787        H  0.94118304  0.08251699  0.61481999     0.14800
H788        H  0.82229376  0.17136174  0.56207776     0.14700
H789        H  0.90261529  0.08211754  0.52863369     0.32800
H790        H  0.86015654  0.16924641  0.64859852     0.35600
C791        C  0.09735101  0.11496211  0.58657004     0.21200
C792        C  0.10292336  0.14187851  0.60069650    -0.38700
C793        C  0.13272082  0.14980260  0.60290031     0.20100
C794        C  0.15529255  0.13212390  0.59218380     0.22800
C795        C  0.14967556  0.10545250  0.57758002    -0.39200
C796        C  0.11982322  0.09767172  0.57510122     0.21600
N797        N  0.07119019  0.10139578  0.58382716    -0.32500
C798        C  0.07693528  0.07522482  0.57046489    -0.10000
C799        C  0.10704035  0.07242864  0.56419133    -0.28900
N800        N  0.18175768  0.14404984  0.59813918    -0.45400
C801        C  0.17588657  0.16972019  0.61230173    -0.04700
C802        C  0.14557653  0.17409132  0.61564686    -0.22100
H803        H  0.08540073  0.15534136  0.60986491     0.19700
H804        H  0.16726566  0.09145573  0.56938881     0.18500
H805        H  0.11826554  0.05370150  0.55444355     0.14800
H806        H  0.13449164  0.19244354  0.62623525     0.14700
H807        H  0.05095385  0.10877382  0.59211992     0.32800
H808        H  0.20247242  0.13546305  0.59263031     0.35600
C809        C  0.17396898  0.63896771  0.54734946     0.21200
C810        C  0.15007200  0.62502028  0.53346098    -0.38700
C811        C  0.15764738  0.60349073  0.51252461     0.20100
C812        C  0.18677547  0.59651778  0.50613110     0.22800
C813        C  0.21052274  0.61040518  0.51991982    -0.39200
C814        C  0.20297008  0.63182560  0.54069033     0.21600
N815        N  0.17292198  0.65998866  0.56820958    -0.32500
C816        C  0.20149450  0.66601747  0.57472207    -0.10000
C817        C  0.22080162  0.64896352  0.55796140    -0.28900
N818        N  0.18834783  0.57564367  0.48539245    -0.45400
C819        C  0.16009922  0.56929192  0.47836744    -0.04700
C820        C  0.14015537  0.58606757  0.49477327    -0.22100
H821        H  0.12735928  0.63052613  0.53853772     0.19700
H822        H  0.23324326  0.60492489  0.51482521     0.18500
H823        H  0.24470129  0.64891003  0.55856404     0.14800
H824        H  0.11629339  0.58573664  0.49360712     0.14700
H825        H  0.15405062  0.66939932  0.57759553     0.32800
H826        H  0.20744479  0.56644144  0.47624820     0.35600
C827        C  0.35066014  0.77257460  0.54302519     0.21200
C828        C  0.37020851  0.76281816  0.52120461    -0.38700
C829        C  0.38690012  0.78483361  0.50759324     0.20100
C830        C  0.38442435  0.81436522  0.51513508     0.22800
C831        C  0.36482860  0.82413755  0.53702122    -0.39200
C832        C  0.34803483  0.80206336  0.55062187     0.21600
N833        N  0.33238338  0.75594391  0.55917266    -0.32500
C834        C  0.31795676  0.77494966  0.57718041    -0.10000
C835        C  0.32708488  0.80393408  0.57252767    -0.28900
N836        N  0.40282820  0.83084366  0.49883402    -0.45400
C837        C  0.41692149  0.81150595  0.48092237    -0.04700
C838        C  0.40764779  0.78269654  0.48567225    -0.22100
H839        H  0.37225020  0.73977766  0.51524291     0.19700
H840        H  0.36278785  0.84717367  0.54298878     0.18500
H841        H  0.31950160  0.82363520  0.58372729     0.14800
H842        H  0.41517280  0.76292816  0.47455542     0.14700
H843        H  0.32991150  0.73306710  0.55802882     0.32800
H844        H  0.40565720  0.85367993  0.49975922     0.35600
C845        C  0.34696671  0.63287766  0.71050608     0.21200
C846        C  0.36188836  0.61804796  0.73318170    -0.38700
C847        C  0.38601040  0.60069974  0.72431231     0.20100
C848        C  0.39450481  0.59834335  0.69510630     0.22800
C849        C  0.37951623  0.61297439  0.67248469    -0.39200
C850        C  0.35547616  0.63025954  0.68134396     0.21600
N851        N  0.32389828  0.65142635  0.71311034    -0.32500
C852        C  0.31781913  0.66054917  0.68536799    -0.10000
C853        C  0.33692222  0.64770658  0.66498779    -0.28900
N854        N  0.41797930  0.58050012  0.69232036    -0.45400
C855        C  0.42443097  0.57138705  0.71990415    -0.04700
C856        C  0.40507948  0.58344439  0.74053753    -0.22100
H857        H  0.35533120  0.62001065  0.75600443     0.19700
H858        H  0.38618967  0.61116587  0.64967915     0.18500
H859        H  0.33758470  0.65123940  0.64144175     0.14800
H860        H  0.40480425  0.57970602  0.76404918     0.14700
H861        H  0.31326137  0.65778830  0.73251409     0.32800
H862        H  0.42874617  0.57450653  0.67287002     0.35600
C863        C  0.11428706  0.89674399  0.58315323     0.21200
C864        C  0.14406182  0.88886882  0.58653743    -0.38700
C865        C  0.14923990  0.86120135  0.59929025     0.20100
C866        C  0.12650723  0.84257377  0.60747536     0.22800
C867        C  0.09675654  0.85055229  0.60431518    -0.39200
C868        C  0.09160751  0.87845665  0.59210667     0.21600
N869        N  0.10353762  0.92231532  0.57274716    -0.32500
C870        C  0.07378040  0.92065972  0.57581428    -0.10000
C871        C  0.06558323  0.89347293  0.58766641    -0.28900
N872        N  0.13723673  0.81747456  0.61895487    -0.45400
C873        C  0.16699483  0.82033968  0.61840590    -0.04700
C874        C  0.17534973  0.84732851  0.60638607    -0.22100
H875        H  0.16186005  0.90342429  0.58021992     0.19700
H876        H  0.07895777  0.83631235  0.61131533     0.18500
H877        H  0.04358195  0.88609310  0.59325589     0.14800
H878        H  0.19751606  0.85554457  0.60308096     0.14700
H879        H  0.11581060  0.93986526  0.56436285     0.32800
H880        H  0.12508398  0.79963409  0.62691214     0.35600
C881        C  0.08482912  0.67265135  0.78515365     0.21200
C882        C  0.08961373  0.68683952  0.75818298    -0.38700
C883        C  0.11896385  0.68744592  0.74847637     0.20100
C884        C  0.14186552  0.67518895  0.76458354     0.22800
C885        C  0.13695415  0.66039960  0.79126253    -0.39200
C886        C  0.10750066  0.65949475  0.80081025     0.21600
N887        N  0.05944360  0.67142945  0.80029192    -0.32500
C888        C  0.06574678  0.65712100  0.82577440    -0.10000
C889        C  0.09552516  0.64890283  0.82658950    -0.28900
N890        N  0.16799084  0.68085757  0.75176752    -0.45400
C891        C  0.16157125  0.69655992  0.72720159    -0.04700
C892        C  0.13121321  0.70083805  0.72424338    -0.22100
H893        H  0.07192663  0.69746223  0.74612320     0.19700
H894        H  0.15484682  0.65116966  0.80412216     0.18500
H895        H  0.10715939  0.63791006  0.84427746     0.14800
H896        H  0.11977860  0.71311877  0.70727376     0.14700
H897        H  0.03945787  0.68128259  0.79427073     0.32800
H898        H  0.18888697  0.67480617  0.75945492     0.35600
C899        C  0.87763985  0.68385339  0.80481019     0.21200
C900        C  0.84801264  0.68407400  0.79587467    -0.38700
C901        C  0.84192059  0.70018204  0.77027009     0.20100
C902        C  0.86370535  0.71483586  0.75472910     0.22800
C903        C  0.89324336  0.71498053  0.76391294    -0.39200
C904        C  0.89932875  0.69884216  0.78947437     0.21600
N905        N  0.88916814  0.67008953  0.82830373    -0.32500
C906        C  0.91837556  0.67646164  0.82793443    -0.10000
C907        C  0.92555554  0.69432656  0.80404316    -0.28900
N908        N  0.85252704  0.72717240  0.73030635    -0.45400
C909        C  0.82341326  0.72044739  0.73041183    -0.04700
C910        C  0.81586280  0.70390982  0.75511890    -0.22100
H911        H  0.83104040  0.67229193  0.80776895     0.19700
H912        H  0.91029231  0.72643886  0.75181173     0.18500
H913        H  0.94696495  0.70331699  0.79853626     0.14800
H914        H  0.79445421  0.69491844  0.76062643     0.14700
H915        H  0.87786841  0.65741937  0.84381229     0.32800
H916        H  0.86403443  0.73910149  0.71436650     0.35600
C917        C  0.70006716  0.85238735  0.75785295     0.21200
C918        C  0.68920282  0.85768483  0.78629236    -0.38700
C919        C  0.69176612  0.88676920  0.79641670     0.20100
C920        C  0.70464203  0.90870821  0.77968874     0.22800
C921        C  0.71515408  0.90351849  0.75109052    -0.39200
C922        C  0.71215314  0.87453741  0.74075710     0.21600
N923        N  0.70143008  0.82639455  0.74377063    -0.32500
C924        C  0.71427940  0.83203021  0.71743817    -0.10000
C925        C  0.72100235  0.86189052  0.71457944    -0.28900
N926        N  0.70488401  0.93432037  0.79448174    -0.45400
C927        C  0.69148251  0.92893586  0.82064990    -0.04700
C928        C  0.68298747  0.89940063  0.82259318    -0.22100
H929        H  0.67964686  0.84039507  0.79961594     0.19700
H930        H  0.72509051  0.92072886  0.73794272     0.18500
H931        H  0.73223757  0.87256514  0.69648647     0.14800
H932        H  0.67141434  0.88872691  0.84046826     0.14700
H933        H  0.69475905  0.80592513  0.75189892     0.32800
H934        H  0.71357350  0.95430796  0.78711033     0.35600
C935        C  0.68435370  0.11482966  0.78153074     0.21200
C936        C  0.67621587  0.14063402  0.76653405    -0.38700
C937        C  0.69866206  0.15392817  0.74998481     0.20100
C938        C  0.72708028  0.14258693  0.74880295     0.22800
C939        C  0.73509809  0.11662928  0.76346173    -0.39200
C940        C  0.71261801  0.10316145  0.77969312     0.21600
N941        N  0.66782831  0.09922283  0.80045424    -0.32500
C942        C  0.68574724  0.07745321  0.81041329    -0.10000
C943        C  0.71371502  0.07900771  0.79786000    -0.28900
N944        N  0.74452428  0.15960749  0.73211933    -0.45400
C945        C  0.72698836  0.18169959  0.72223309    -0.04700
C946        C  0.69821474  0.17894736  0.73286121    -0.22100
H947        H  0.65420586  0.14990782  0.76800392     0.19700
H948        H  0.75733917  0.10783546  0.76268759     0.18500
H949        H  0.73280336  0.06552882  0.80299264     0.14800
H950        H  0.67951132  0.19321749  0.72848705     0.14700
H951        H  0.64628243  0.10386764  0.80728298     0.32800
H952        H  0.76678575  0.15603533  0.72718894     0.35600
C953        C  0.88129282  0.29801780  0.74598027     0.21200
C954        C  0.90544343  0.28904661  0.76300636    -0.38700
C955        C  0.91585780  0.30981235  0.78324831     0.20100
C956        C  0.90321498  0.33749919  0.78646334     0.22800
C957        C  0.87936322  0.34675199  0.76890661    -0.39200
C958        C  0.86892164  0.32589263  0.74852664     0.21600
N959        N  0.86595694  0.28140034  0.72696735    -0.32500
C960        C  0.84366953  0.29875462  0.71715958    -0.10000
C961        C  0.84495663  0.32683162  0.72978229    -0.28900
N962        N  0.91603066  0.35225236  0.80878230    -0.45400
C963        C  0.93699143  0.33372688  0.81948393    -0.04700
C964        C  0.93768094  0.30723352  0.80403682    -0.22100
H965        H  0.91481519  0.26711073  0.76131774     0.19700
H966        H  0.86908910  0.36818080  0.77157654     0.18500
H967        H  0.82959011  0.34491875  0.72676536     0.14800
H968        H  0.95173856  0.28832005  0.80813507     0.14700
H969        H  0.86995943  0.25933897  0.72156902     0.32800
H970        H  0.91069158  0.37331652  0.81649095     0.35600
C971        C  0.12429303  0.30858330  0.80490382     0.21200
C972        C  0.15405188  0.30932981  0.79656425    -0.38700
C973        C  0.16047616  0.29684459  0.76911544     0.20100
C974        C  0.13886082  0.28484175  0.75122198     0.22800
C975        C  0.10917380  0.28366973  0.75976274    -0.39200
C976        C  0.10281103  0.29592116  0.78733806     0.21600
N977        N  0.11238676  0.31961917  0.82960467    -0.32500
C978        C  0.08313275  0.31369619  0.82789830    -0.10000
C979        C  0.07637873  0.29873795  0.80190054    -0.28900
N980        N  0.15058885  0.27494985  0.72597363    -0.45400
C981        C  0.17989454  0.28037810  0.72804874    -0.04700
C982        C  0.18697341  0.29389345  0.75464470    -0.22100
H983        H  0.17091627  0.31902524  0.81035891     0.19700
H984        H  0.09228113  0.27411524  0.74590112     0.18500
H985        H  0.05494572  0.29123182  0.79454792     0.14800
H986        H  0.20855334  0.30065233  0.76228901     0.14700
H987        H  0.12340859  0.33097075  0.84630293     0.32800
H988        H  0.13946324  0.26466656  0.70865888     0.35600
C989        C  0.30877697  0.12869020  0.74455541     0.21200
C990        C  0.31974406  0.10011031  0.74931233    -0.38700
C991        C  0.31888626  0.09028592  0.77854484     0.20100
C992        C  0.30751486  0.10743855  0.80107805     0.22800
C993        C  0.29701642  0.13612174  0.79642605    -0.39200
C994        C  0.29832961  0.14611944  0.76736676     0.21600
N995        N  0.30555444  0.14256957  0.71866439    -0.32500
C996        C  0.29324435  0.16904904  0.72523156    -0.10000
C997        C  0.28873143  0.17222246  0.75537457    -0.28900
N998        N  0.30771033  0.09260136  0.82653513    -0.45400
C999        C  0.31974933  0.06585924  0.82045708    -0.04700
C1000       C  0.32719793  0.06370360  0.79066608    -0.22100
H1001       H  0.32783372  0.08638163  0.73153566     0.19700
H1002       H  0.28804116  0.14948669  0.81406094     0.18500
H1003       H  0.27841771  0.19054020  0.76676490     0.14800
H1004       H  0.33710372  0.04514025  0.77933095     0.14700
H1005       H  0.31075112  0.13432055  0.69781948     0.32800
H1006       H  0.29944037  0.10006415  0.84667853     0.35600
C1007       C  0.30408525  0.84881201  0.75102900     0.21200
C1008       C  0.31910405  0.87553679  0.75517545    -0.38700
C1009       C  0.32102560  0.88538569  0.78438638     0.20100
C1010       C  0.30860912  0.86995043  0.80751349     0.22800
C1011       C  0.29399959  0.84306813  0.80340797    -0.39200
C1012       C  0.29238709  0.83303898  0.77432327     0.21600
N1013       N  0.29786049  0.83550533  0.72537768    -0.32500
C1014       C  0.28238595  0.81096444  0.73248974    -0.10000
C1015       C  0.27870091  0.80854695  0.76281260    -0.28900
N1016       N  0.31066720  0.88533631  0.83262626    -0.45400
C1017       C  0.32445804  0.91087986  0.82562342    -0.04700
C1018       C  0.33184953  0.91138385  0.79573824    -0.22100
H1019       H  0.32781280  0.88816100  0.73694815     0.19700
H1020       H  0.28386675  0.83126373  0.82144768     0.18500
H1021       H  0.26677164  0.79169618  0.77471235     0.14800
H1022       H  0.34206171  0.92917105  0.78360593     0.14700
H1023       H  0.30352902  0.84279799  0.70432828     0.32800
H1024       H  0.30140955  0.87961139  0.85287607     0.35600
C1025       C  0.38262973  0.78861403  0.30479451     0.21200
C1026       C  0.36718954  0.76561488  0.29124604    -0.38700
C1027       C  0.34805617  0.77400026  0.26855286     0.20100
C1028       C  0.34462183  0.80307699  0.25987643     0.22800
C1029       C  0.36028031  0.82614556  0.27332780    -0.39200
C1030       C  0.37939659  0.81775411  0.29617076     0.21600
N1031       N  0.40235293  0.78622598  0.32663806    -0.32500
C1032       C  0.41180882  0.81397483  0.33193495    -0.10000
C1033       C  0.39811839  0.83435157  0.31343216    -0.28900
N1034       N  0.32492038  0.80512972  0.23783771    -0.45400
C1035       C  0.31580283  0.77714610  0.23254360    -0.04700
C1036       C  0.32979557  0.75714832  0.25124300    -0.22100
H1037       H  0.36987653  0.74284591  0.29790830     0.19700
H1038       H  0.35777850  0.84888823  0.26651617     0.18500
H1039       H  0.40188522  0.85788447  0.31235515     0.14800
H1040       H  0.32691824  0.73347168  0.25210799     0.14700
H1041       H  0.40954007  0.76687578  0.33688831     0.32800
H1042       H  0.31806356  0.82434554  0.22712641     0.35600
C1043       C  0.17341511  0.64355057  0.26054779     0.21200
C1044       C  0.15413407  0.63640762  0.28367392    -0.38700
C1045       C  0.15903488  0.60888401  0.29697644     0.20100
C1046       C  0.18122888  0.58996113  0.28765917     0.22800
C1047       C  0.20050859  0.59713612  0.26473147    -0.39200
C1048       C  0.19589144  0.62470194  0.25176563     0.21600
N1049       N  0.17437957  0.66883176  0.24516147    -0.32500
C1050       C  0.19800312  0.66610223  0.22702041    -0.10000
C1051       C  0.21189680  0.63890405  0.23042304    -0.28900
N1052       N  0.18207648  0.56564167  0.30431837    -0.45400
C1053       C  0.16039866  0.56900568  0.32455966    -0.04700
C1054       C  0.14544526  0.59572279  0.32074122    -0.22100
H1055       H  0.13706649  0.65140864  0.29116684     0.19700
H1056       H  0.21829460  0.58261406  0.25798842     0.18500
H1057       H  0.23136915  0.63084323  0.21912635     0.14800
H1058       H  0.12754935  0.60449632  0.33392904     0.14700
H1059       H  0.16058156  0.68718880  0.24759659     0.32800
H1060       H  0.19706434  0.54814944  0.30259463     0.35600
C1061       C  0.34256688  0.64366573  0.08899762     0.21200
C1062       C  0.35708923  0.63029381  0.06511090    -0.38700
C1063       C  0.37801198  0.60860094  0.07250703     0.20100
C1064       C  0.38371866  0.60088449  0.10145707     0.22800
C1065       C  0.36934957  0.61426332  0.12519792    -0.39200
C1066       C  0.34866862  0.63591484  0.11783270     0.21600
N1067       N  0.32176659  0.66486085  0.08808575    -0.32500
C1068       C  0.31478720  0.67046012  0.11656944    -0.10000
C1069       C  0.33116370  0.65292541  0.13570933    -0.28900
N1070       N  0.40498988  0.58041899  0.10293322    -0.45400
C1071       C  0.41319488  0.57518194  0.07482665    -0.04700
C1072       C  0.39685317  0.59215678  0.05504358    -0.22100
H1073       H  0.35263476  0.63649155  0.04254746     0.19700
H1074       H  0.37412203  0.60839847  0.14779058     0.18500
H1075       H  0.33016854  0.65248818  0.15950630     0.14800
H1076       H  0.39909390  0.59295819  0.03135299     0.14700
H1077       H  0.31279060  0.67474667  0.06934324     0.32800
H1078       H  0.41409002  0.57116054  0.12193674     0.35600
C1079       C  0.27991756  0.84193564  0.03245715     0.21200
C1080       C  0.28038046  0.84879713  0.00231839    -0.38700
C1081       C  0.29327120  0.87592835  0.99492528     0.20100
C1082       C  0.30490513  0.89470334  0.01592111     0.22800
C1083       C  0.30423494  0.88795656  0.04605463    -0.39200
C1084       C  0.29122503  0.86091497  0.05346671     0.21600
N1085       N  0.26880949  0.81760621  0.04519598    -0.32500
C1086       C  0.27286965  0.82122274  0.07455424    -0.10000
C1087       C  0.28674488  0.84800908  0.08054753    -0.28900
N1088       N  0.31550159  0.91929779  0.00331828    -0.45400
C1089       C  0.31031540  0.91642168  0.97404984    -0.04700
C1090       C  0.29655853  0.88952800  0.96800402    -0.22100
H1091       H  0.27121939  0.83418279  0.98586302     0.19700
H1092       H  0.31299429  0.90278262  0.06253984     0.18500
H1093       H  0.29276876  0.85681934  0.10185180     0.14800
H1094       H  0.28919069  0.88142592  0.94684237     0.14700
H1095       H  0.25881848  0.79978528  0.03460041     0.32800
H1096       H  0.32541434  0.93708250  0.01404414     0.35600
C1097       C  0.13860599  0.68162758  0.04539051     0.21200
C1098       C  0.13465586  0.66473163  0.01979613    -0.38700
C1099       C  0.10591290  0.66440838  0.00835230     0.20100
C1100       C  0.08299115  0.67988383  0.02138627     0.22800
C1101       C  0.08682098  0.69640749  0.04721839    -0.39200
C1102       C  0.11550431  0.69656644  0.05877623     0.21600
N1103       N  0.16407588  0.68687696  0.05951608    -0.32500
C1104       C  0.15713369  0.70507196  0.08218494    -0.10000
C1105       C  0.12697633  0.71141000  0.08266007    -0.28900
N1106       N  0.05834974  0.67772036  0.00521202    -0.45400
C1107       C  0.06543701  0.66062531  0.98170378    -0.04700
C1108       C  0.09494505  0.65166243  0.98304954    -0.22100
H1109       H  0.15278877  0.65333830  0.00914999     0.19700
H1110       H  0.06894153  0.70880209  0.05716376     0.18500
H1111       H  0.11528457  0.72581922  0.09771382     0.14800
H1112       H  0.10694353  0.63841875  0.96719815     0.14700
H1113       H  0.18498840  0.67888353  0.05386473     0.32800
H1114       H  0.03820260  0.68822385  0.00936412     0.35600
C1115       C  0.81136857  0.66470854  0.25962461     0.21200
C1116       C  0.82827887  0.65914077  0.28495416    -0.38700
C1117       C  0.83042510  0.62939203  0.29339454     0.20100
C1118       C  0.81652385  0.60707784  0.27796719     0.22800
C1119       C  0.80010108  0.61256927  0.25245247    -0.39200
C1120       C  0.79822435  0.64214409  0.24386494     0.21600
N1121       N  0.80486093  0.69105945  0.24757718    -0.32500
C1122       C  0.78779926  0.68498299  0.22381770    -0.10000
C1123       C  0.78332259  0.65475458  0.22076199    -0.28900
N1124       N  0.81936604  0.58120452  0.29197977    -0.45400
C1125       C  0.83511573  0.58687481  0.31669244    -0.04700
C1126       C  0.84306207  0.61666719  0.31790587    -0.22100
H1127       H  0.83830482  0.67669660  0.29759567     0.19700
H1128       H  0.78893946  0.59516053  0.24057831     0.18500
H1129       H  0.77039928  0.64356367  0.20414313     0.14800
H1130       H  0.85496896  0.62785693  0.33525714     0.14700
H1131       H  0.81163232  0.71178873  0.25495703     0.32800
H1132       H  0.80953146  0.56126831  0.28600534     0.35600
C1133       C  0.62655814  0.80815883  0.24807860     0.21200
C1134       C  0.59859617  0.82036391  0.25374960    -0.38700
C1135       C  0.58947140  0.81966759  0.28324518     0.20100
C1136       C  0.60663934  0.80726251  0.30519188     0.22800
C1137       C  0.63470885  0.79546346  0.29961291    -0.39200
C1138       C  0.64404613  0.79662516  0.27028436     0.21600
N1139       N  0.64011270  0.80556053  0.22189577    -0.32500
C1140       C  0.66654552  0.79267738  0.22765795    -0.10000
C1141       C  0.66984067  0.78688556  0.25758067    -0.28900
N1142       N  0.59234650  0.80769412  0.33101601    -0.45400
C1143       C  0.56590615  0.82078340  0.32572514    -0.04700
C1144       C  0.56351521  0.82891676  0.29613975    -0.22100
H1145       H  0.58486015  0.82942633  0.23646850     0.19700
H1146       H  0.64817260  0.78583746  0.31680602     0.18500
H1147       H  0.68837574  0.77642240  0.26846059     0.14800
H1148       H  0.54498558  0.83947950  0.28535560     0.14700
H1149       H  0.63194885  0.81216966  0.20143197     0.32800
H1150       H  0.59979002  0.79863998  0.35081034     0.35600
C1151       C  0.60659259  0.60655286  0.09762079     0.21200
C1152       C  0.63358523  0.61246766  0.11142644    -0.38700
C1153       C  0.64348250  0.64162287  0.10941886     0.20100
C1154       C  0.62749384  0.66346967  0.09524136     0.22800
C1155       C  0.60060902  0.65742382  0.08100300    -0.39200
C1156       C  0.59092406  0.62802839  0.08259937     0.21600
N1157       N  0.59237182  0.58065672  0.09682021    -0.32500
C1158       C  0.56753224  0.58531643  0.08080047    -0.10000
C1159       C  0.56598058  0.61468330  0.07139052    -0.28900
N1160       N  0.64121003  0.68967693  0.09768225    -0.45400
C1161       C  0.66626488  0.68421735  0.11315200    -0.04700
C1162       C  0.66849093  0.65449144  0.12065771    -0.22100
H1163       H  0.64592485  0.59560921  0.12301756     0.19700
H1164       H  0.58808746  0.67434760  0.06970927     0.18500
H1165       H  0.54885471  0.62490934  0.05824817     0.14800
H1166       H  0.68573068  0.64389200  0.13336381     0.14700
H1167       H  0.59901551  0.56105401  0.10695576     0.32800
H1168       H  0.63400108  0.70995361  0.08942101     0.35600
C1169       C  0.85057350  0.69338912  0.05048804     0.21200
C1170       C  0.86338737  0.66872037  0.03673400    -0.38700
C1171       C  0.88577004  0.67490165  0.01632520     0.20100
C1172       C  0.89471795  0.70345876  0.01030466     0.22800
C1173       C  0.88199464  0.72803710  0.02407716    -0.39200
C1174       C  0.85958086  0.72187385  0.04430747     0.21600
N1175       N  0.82830812  0.69361397  0.07002636    -0.32500
C1176       C  0.82314256  0.72246025  0.07616428    -0.10000
C1177       C  0.84226072  0.74071733  0.06061585    -0.28900
N1178       N  0.91552447  0.70364111  0.98935521    -0.45400
C1179       C  0.91974518  0.67506097  0.98181635    -0.04700
C1180       C  0.90174957  0.65636816  0.99819624    -0.22100
H1181       H  0.85611631  0.64645067  0.04119249     0.19700
H1182       H  0.88870148  0.75035796  0.01901731     0.18500
H1183       H  0.84314202  0.76457300  0.06096975     0.14800
H1184       H  0.90006117  0.63262601  0.99645236     0.14700
H1185       H  0.81715754  0.67533383  0.07843459     0.32800
H1186       H  0.92577724  0.72208622  0.98019542     0.35600
C1187       C  0.67826374  0.90892140  0.00864686     0.21200
C1188       C  0.66607890  0.88801555  0.02793475    -0.38700
C1189       C  0.68652982  0.87156402  0.04444947     0.20100
C1190       C  0.71669063  0.87571252  0.04178302     0.22800
C1191       C  0.72881433  0.89667737  0.02276389    -0.39200
C1192       C  0.70846914  0.91307584  0.00638042     0.21600
N1193       N  0.66384217  0.92613477  0.98927679    -0.32500
C1194       C  0.68515348  0.94108578  0.97467100    -0.10000
C1195       C  0.71318616  0.93380453  0.98491155    -0.28900
N1196       N  0.73154500  0.85689305  0.05902467    -0.45400
C1197       C  0.71083431  0.84057741  0.07295359    -0.04700
C1198       C  0.68239405  0.84910709  0.06455768    -0.22100
H1199       H  0.64251668  0.88444001  0.02954031     0.19700
H1200       H  0.75241704  0.89959145  0.02046223     0.18500
H1201       H  0.73418347  0.94165443  0.97673092     0.14800
H1202       H  0.66162710  0.83997529  0.07194007     0.14700
H1203       H  0.64111197  0.92693390  0.98545778     0.32800
H1204       H  0.75446503  0.85524770  0.06115246     0.35600
C1205       C  0.65846230  0.19717804  0.26054525     0.21200
C1206       C  0.65424904  0.18291465  0.28763433    -0.38700
C1207       C  0.62494236  0.18170422  0.29760973     0.20100
C1208       C  0.60180048  0.19406252  0.28194764     0.22800
C1209       C  0.60593088  0.20779990  0.25470458    -0.39200
C1210       C  0.63507450  0.20868385  0.24457455     0.21600
N1211       N  0.68420861  0.20269777  0.24692448    -0.32500
C1212       C  0.67694594  0.21745845  0.22199643    -0.10000
C1213       C  0.64653810  0.22137417  0.21965843    -0.28900
N1214       N  0.57651336  0.19222186  0.29712779    -0.45400
C1215       C  0.58339703  0.17843467  0.32267021    -0.04700
C1216       C  0.61340230  0.17111842  0.32357001    -0.22100
H1217       H  0.67247235  0.17411915  0.30033647     0.19700
H1218       H  0.58785819  0.21770861  0.24261106     0.18500
H1219       H  0.63455478  0.23289922  0.20253896     0.14800
H1220       H  0.62534630  0.16059095  0.34133832     0.14700
H1221       H  0.70535468  0.19700770  0.25419564     0.32800
H1222       H  0.55606844  0.20102882  0.29101445     0.35600
C1223       C  0.81560255  0.41637135  0.27417668     0.21200
C1224       C  0.80201224  0.41115902  0.24689806    -0.38700
C1225       C  0.80064856  0.38151380  0.23808120     0.20100
C1226       C  0.81168513  0.35883166  0.25530018     0.22800
C1227       C  0.82584828  0.36411937  0.28221434    -0.39200
C1228       C  0.82744936  0.39374944  0.29088124     0.21600
N1229       N  0.81740678  0.44216277  0.28865432    -0.32500
C1230       C  0.83054245  0.43598280  0.31479948    -0.10000
C1231       C  0.83766174  0.40601924  0.31662383    -0.28900
N1232       N  0.80580067  0.33250253  0.24311066    -0.45400
C1233       C  0.79125650  0.33844359  0.21775234    -0.04700
C1234       C  0.78781948  0.36877929  0.21369526    -0.22100
H1235       H  0.79241639  0.42876897  0.23393836     0.19700
H1236       H  0.83414515  0.34638309  0.29586687     0.18500
H1237       H  0.84767268  0.39448802  0.33494482     0.14800
H1238       H  0.77662112  0.37991452  0.19581161     0.14700
H1239       H  0.80880160  0.46242614  0.28178773     0.32800
H1240       H  0.81120069  0.31176036  0.25158165     0.35600
C1241       C  0.63669506  0.35549747  0.08804511     0.21200
C1242       C  0.61018337  0.36155561  0.07312667    -0.38700
C1243       C  0.60111358  0.39124207  0.07320248     0.20100
C1244       C  0.61704879  0.41303354  0.08735028     0.22800
C1245       C  0.64387172  0.40712367  0.10153254    -0.39200
C1246       C  0.65307418  0.37761952  0.10118553     0.21600
N1247       N  0.64938816  0.32898635  0.09259279    -0.32500
C1248       C  0.67422474  0.33454236  0.10829119    -0.10000
C1249       C  0.67731584  0.36458194  0.11390044    -0.28900
N1250       N  0.60218315  0.43869069  0.08727755    -0.45400
C1251       C  0.57654580  0.43347952  0.07278387    -0.04700
C1252       C  0.57544537  0.40416314  0.06312222    -0.22100
H1253       H  0.59709634  0.34433403  0.06309298     0.19700
H1254       H  0.65620587  0.42410731  0.11284795     0.18500
H1255       H  0.69468862  0.37533729  0.12620730     0.14800
H1256       H  0.55745431  0.39331186  0.05183627     0.14700
H1257       H  0.64177861  0.30849638  0.08536908     0.32800
H1258       H  0.60834611  0.45802732  0.09814020     0.35600
C1259       C  0.67843617  0.12182201  0.99762275     0.21200
C1260       C  0.66826258  0.14199779  0.01885456    -0.38700
C1261       C  0.69025016  0.15557513  0.03592481     0.20100
C1262       C  0.71999298  0.14952585  0.03202328     0.22800
C1263       C  0.73012495  0.12952363  0.01079956    -0.39200
C1264       C  0.70824636  0.11596788  0.99385452     0.21600
N1265       N  0.66216613  0.10535613  0.97909251    -0.32500
C1266       C  0.68196359  0.08908784  0.96360787    -0.10000
C1267       C  0.71080734  0.09509803  0.97211997    -0.28900
N1268       N  0.73649040  0.16507035  0.05097428    -0.45400
C1269       C  0.71720832  0.18121525  0.06715742    -0.04700
C1270       C  0.68811458  0.17592221  0.05843105    -0.22100
H1271       H  0.64500712  0.14660000  0.02200716     0.19700
H1272       H  0.75336265  0.12468379  0.00785069     0.18500
H1273       H  0.73087359  0.08508134  0.96379968     0.14800
H1274       H  0.66816785  0.18575667  0.06723720     0.14700
H1275       H  0.63917919  0.10486235  0.97732883     0.32800
H1276       H  0.75949525  0.16480514  0.05268618     0.35600
C1277       C  0.88995775  0.33261023  0.99991474     0.21200
C1278       C  0.86195466  0.33844683  0.01191832    -0.38700
C1279       C  0.85221890  0.31842897  0.03337404     0.20100
C1280       C  0.86887948  0.29418969  0.04179180     0.22800
C1281       C  0.89698938  0.28859554  0.03011497    -0.39200
C1282       C  0.90689081  0.30882607  0.00905781     0.21600
N1283       N  0.90385564  0.34762909  0.97849497    -0.32500
C1284       C  0.92986795  0.33334592  0.97429266    -0.10000
C1285       C  0.93263239  0.30922523  0.99306882    -0.28900
N1286       N  0.85455605  0.27823137  0.06213590    -0.45400
C1287       C  0.82882803  0.29270415  0.06716502    -0.04700
C1288       C  0.82654451  0.31790039  0.04968090    -0.22100
H1289       H  0.84869625  0.35710155  0.00500350     0.19700
H1290       H  0.91013154  0.26977844  0.03681962     0.18500
H1291       H  0.95060602  0.29344719  0.99397944     0.14800
H1292       H  0.80853320  0.33364384  0.04900930     0.14700
H1293       H  0.89598904  0.36603655  0.96708476     0.32800
H1294       H  0.86210523  0.25906562  0.07247874     0.35600
C1295       C  0.17597403  0.38552280  0.29512415     0.21200
C1296       C  0.16758929  0.36213540  0.27675147    -0.38700
C1297       C  0.19038843  0.34920662  0.26023271     0.20100
C1298       C  0.21935273  0.35873882  0.26194669     0.22800
C1299       C  0.22772740  0.38222254  0.28022563    -0.39200
C1300       C  0.20491777  0.39520933  0.29667703     0.21600
N1301       N  0.15859186  0.40111863  0.31343678    -0.32500
C1302       C  0.17667843  0.42080972  0.32662847    -0.10000
C1303       C  0.20566216  0.41792655  0.31675413    -0.28900
N1304       N  0.23687572  0.34253447  0.24428688    -0.45400
C1305       C  0.21888780  0.32262048  0.23115712    -0.04700
C1306       C  0.18974108  0.32615188  0.24051519    -0.22100
H1307       H  0.14501647  0.35446547  0.27552003     0.19700
H1308       H  0.25034791  0.38971721  0.28166859     0.18500
H1309       H  0.22470491  0.43046067  0.32376124     0.14800
H1310       H  0.17066830  0.31347288  0.23384786     0.14700
H1311       H  0.13598697  0.39838001  0.31703396     0.32800
H1312       H  0.25960525  0.34495881  0.24125846     0.35600
C1313       C  0.41142624  0.19696134  0.28923347     0.21200
C1314       C  0.40169872  0.21855955  0.26940190    -0.38700
C1315       C  0.37668390  0.21124791  0.25285399     0.20100
C1316       C  0.36265923  0.18428630  0.25547185     0.22800
C1317       C  0.37223371  0.16275733  0.27559619    -0.39200
C1318       C  0.39707400  0.17023232  0.29249629     0.21600
N1319       N  0.43415356  0.19899282  0.30802183    -0.32500
C1320       C  0.43409980  0.17360079  0.32364764    -0.10000
C1321       C  0.41133826  0.15500661  0.31468222    -0.28900
N1322       N  0.33903825  0.18304211  0.23756402    -0.45400
C1323       C  0.33778994  0.20961099  0.22392825    -0.04700
C1324       C  0.36090899  0.22775420  0.23287681    -0.22100
H1325       H  0.41250941  0.23971919  0.26738786     0.19700
H1326       H  0.36089908  0.14195061  0.27823910     0.18500
H1327       H  0.40582557  0.13354104  0.32345819     0.14800
H1328       H  0.36528909  0.25017405  0.22600873     0.14700
H1329       H  0.44846995  0.21682663  0.31060609     0.32800
H1330       H  0.32411868  0.16564238  0.23550630     0.35600
C1331       C  0.35783601  0.35281805  0.09018376     0.21200
C1332       C  0.37153749  0.36788991  0.06690199    -0.38700
C1333       C  0.39071695  0.39074832  0.07514042     0.20100
C1334       C  0.39578084  0.39795253  0.10433089     0.22800
C1335       C  0.38223851  0.38285196  0.12753268    -0.39200
C1336       C  0.36315018  0.36007303  0.11929973     0.21600
N1337       N  0.33816873  0.33069310  0.08833312    -0.32500
C1338       C  0.33099004  0.32395838  0.11651234    -0.10000
C1339       C  0.34625894  0.34171621  0.13637777    -0.28900
N1340       N  0.41500944  0.42027693  0.10647397    -0.45400
C1341       C  0.42237480  0.42730920  0.07849365    -0.04700
C1342       C  0.40768497  0.40947920  0.05825122    -0.22100
H1343       H  0.36750324  0.36230664  0.04409944     0.19700
H1344       H  0.38620408  0.38849218  0.15033845     0.18500
H1345       H  0.34474301  0.34159172  0.16015018     0.14800
H1346       H  0.40954900  0.40992096  0.03451895     0.14700
H1347       H  0.32988063  0.32107037  0.06915963     0.32800
H1348       H  0.42301167  0.42992534  0.12575852     0.35600
C1349       C  0.13203099  0.29702302  0.06070240     0.21200
C1350       C  0.10248266  0.29577555  0.05134894    -0.38700
C1351       C  0.09636475  0.30920287  0.02415676     0.20100
C1352       C  0.11794570  0.32302787  0.00764799     0.22800
C1353       C  0.14742906  0.32435371  0.01701980    -0.39200
C1354       C  0.15360471  0.31066621  0.04401593     0.21600
N1355       N  0.14400245  0.28405566  0.08456640    -0.32500
C1356       C  0.17346909  0.28906111  0.08270311    -0.10000
C1357       C  0.18020028  0.30580245  0.05786608    -0.28900
N1358       N  0.10683931  0.33268658  0.98194455    -0.45400
C1359       C  0.07795220  0.32487531  0.98196226    -0.04700
C1360       C  0.07062885  0.31024210  0.00799823    -0.22100
H1361       H  0.08568906  0.28436221  0.06383818     0.19700
H1362       H  0.16451928  0.33438640  0.00376543     0.18500
H1363       H  0.20183745  0.31250474  0.05033879     0.14800
H1364       H  0.04953232  0.30073382  0.01381371     0.14700
H1365       H  0.13303656  0.27138534  0.10030987     0.32800
H1366       H  0.11832327  0.34343270  0.96517223     0.35600
C1367       C  0.30338917  0.11259677  0.99074220     0.21200
C1368       C  0.29276206  0.14132372  0.99616878    -0.38700
C1369       C  0.29217865  0.15013512  0.02588146     0.20100
C1370       C  0.30119125  0.13157601  0.04834338     0.22800
C1371       C  0.31213442  0.10312069  0.04287205    -0.39200
C1372       C  0.31301437  0.09448634  0.01327084     0.21600
N1373       N  0.30460837  0.09825741  0.96478896    -0.32500
C1374       C  0.31514750  0.07079730  0.97086003    -0.10000
C1375       C  0.32108307  0.06796287  0.00088979    -0.28900
N1376       N  0.29732021  0.14445243  0.07470612    -0.45400
C1377       C  0.28600071  0.17160698  0.06919882    -0.04700
C1378       C  0.28258041  0.17604371  0.03892259    -0.22100
H1379       H  0.28504735  0.15554337  0.97864432     0.19700
H1380       H  0.31895182  0.08852851  0.06046071     0.18500
H1381       H  0.32924970  0.04866970  0.01234245     0.14800
H1382       H  0.27371016  0.19534226  0.02800469     0.14700
H1383       H  0.29746060  0.10626138  0.94444882     0.32800
H1384       H  0.30197650  0.13523308  0.09525353     0.35600
C1385       C  0.11149854  0.90525319  0.21678776     0.21200
C1386       C  0.13936551  0.89929940  0.20483622    -0.38700
C1387       C  0.14767516  0.86958427  0.20441809     0.20100
C1388       C  0.12946308  0.84740274  0.21474535     0.22800
C1389       C  0.10171122  0.85341175  0.22713654    -0.39200
C1390       C  0.09354161  0.88326102  0.22787075     0.21600
N1391       N  0.09800390  0.93154262  0.21830428    -0.32500
C1392       C  0.07130087  0.92645341  0.23073810    -0.10000
C1393       C  0.06783086  0.89655106  0.23725871    -0.28900
N1394       N  0.14161653  0.82082715  0.20974384    -0.45400
C1395       C  0.16775883  0.82631842  0.19633673    -0.04700
C1396       C  0.17247328  0.85642512  0.19293201    -0.22100
H1397       H  0.15326912  0.91647652  0.19590228     0.19700
H1398       H  0.08728988  0.83611581  0.23495260     0.18500
H1399       H  0.04880504  0.88590743  0.24692474     0.14800
H1400       H  0.19088032  0.86713039  0.18219171     0.14700
H1401       H  0.10615272  0.95158728  0.21047944     0.32800
H1402       H  0.13241604  0.80027181  0.21448176     0.35600
C1403       C  0.84426960  0.87132055  0.21217744     0.21200
C1404       C  0.86165197  0.88229652  0.23528862    -0.38700
C1405       C  0.88188501  0.90435858  0.22758828     0.20100
C1406       C  0.88434064  0.91486580  0.19908324     0.22800
C1407       C  0.86693036  0.90397187  0.17602158    -0.39200
C1408       C  0.84697698  0.88168843  0.18365820     0.16800
N1409       N  0.82489057  0.84895734  0.21335200    -0.32500
C1410       C  0.81558178  0.84475733  0.18531304    -0.10000
C1411       C  0.82866905  0.86493986  0.16621202    -0.28900
N1412       N  0.90582241  0.93509379  0.19722022    -0.45400
C1413       C  0.91720312  0.93736470  0.22465684    -0.04700
C1414       C  0.90288471  0.91864861  0.24429175    -0.22100
H1415       H  0.86010588  0.87371863  0.25744999     0.19700
H1416       H  0.86935653  0.91167770  0.15361880     0.18500
H1417       H  0.82597309  0.86642719  0.14259335     0.14800
H1418       H  0.90750509  0.91567350  0.26746202     0.14700
H1419       H  0.81931450  0.83649994  0.23184885     0.32800
H1420       H  0.91267171  0.94639795  0.17841487     0.35600
C1421       C  0.86494958  0.14970634  0.18475083     0.21200
C1422       C  0.88520667  0.12813431  0.17574626    -0.38700
C1423       C  0.90001817  0.11335733  0.19837659     0.20100
C1424       C  0.89515507  0.11957347  0.22783567     0.22800
C1425       C  0.87485093  0.14127214  0.23688662    -0.39200
C1426       C  0.85991948  0.15607708  0.21414075     0.21600
N1427       N  0.84770464  0.16629409  0.16736706    -0.32500
C1428       C  0.83141369  0.18337194  0.18569560    -0.10000
C1429       C  0.83846427  0.17776367  0.21510573    -0.28900
N1430       N  0.91204995  0.10219544  0.24496983    -0.45400
C1431       C  0.92768687  0.08503591  0.22611084    -0.04700
C1432       C  0.92072469  0.09121753  0.19695098    -0.22100
H1433       H  0.88900585  0.12307990  0.15276960     0.19700
H1434       H  0.87084227  0.14611622  0.25987038     0.18500
H1435       H  0.82891833  0.18787395  0.23450072     0.14800
H1436       H  0.92970575  0.08087235  0.17741327     0.14700
H1437       H  0.84685968  0.16579164  0.14440006     0.32800
H1438       H  0.91294671  0.10196066  0.26793215     0.35600
C1439       C  0.12397554  0.09242090  0.22465195     0.21200
C1440       C  0.15114905  0.09592841  0.21022227    -0.38700
C1441       C  0.16191220  0.12486211  0.20888847     0.20100
C1442       C  0.14659462  0.14849006  0.22083164     0.22800
C1443       C  0.11973233  0.14488318  0.23581534    -0.39200
C1444       C  0.10908383  0.11590747  0.23731900     0.21600
N1445       N  0.10766015  0.06780588  0.22604215    -0.32500
C1446       C  0.08211344  0.07550492  0.23972132    -0.10000
C1447       C  0.08252578  0.10531536  0.24763271    -0.28900
N1448       N  0.15998309  0.17401310  0.21418049    -0.45400
C1449       C  0.18409636  0.16661910  0.19805611    -0.04700
C1450       C  0.18627458  0.13610457  0.19458526    -0.22100
H1451       H  0.16244890  0.07765833  0.19972409     0.19700
H1452       H  0.10739925  0.16343453  0.24451931     0.18500
H1453       H  0.06500712  0.11794530  0.25791064     0.14800
H1454       H  0.20259365  0.12395232  0.18202929     0.14700
H1455       H  0.11285300  0.04746658  0.21650114     0.32800
H1456       H  0.15275495  0.19523181  0.21964632     0.35600
loop_ 
_geom_bond_atom_site_label_1 
_geom_bond_atom_site_label_2 
_geom_bond_distance 
_geom_bond_site_symmetry_2 
_ccdc_geom_bond_type 
N1            C6   1.353   1_455  A
N1            C5   1.355       .  A
N1           H33   1.042       .  S
N2            C9   1.351       .  A
N2           C10   1.350   1_545  A
N3            C8   1.353       .  A
N3            C7   1.352   1_655  A
N3           H34   1.042       .  S
N4           C11   1.349       .  A
N4           C12   1.350   1_545  A
C5           C13   1.387       .  A
C5           C21   1.416       .  A
C6           C22   1.414       .  A
C6           C14   1.387       .  A
C7           C15   1.388       .  A
C7           C24   1.414       .  A
C8           C23   1.411       .  A
C8           C16   1.386       .  A
C9           C21   1.410       .  A
C9           C17   1.385       .  A
C10          C24   1.411       .  A
C10          C18   1.387       .  A
C11          C19   1.387       .  A
C11          C22   1.408       .  A
C12          C20   1.386       .  A
C12          C23   1.408       .  A
C13          C14   1.374   1_455  A
C13          H25   1.081       .  S
C14          H26   1.082       .  S
C15          C16   1.376   1_455  A
C15          H27   1.081       .  S
C16          H28   1.082       .  S
C17          C18   1.373   1_545  A
C17          H29   1.082       .  S
C18          H30   1.082       .  S
C19          C20   1.374   1_545  A
C19          H31   1.082       .  S
C20          H32   1.082       .  S
C21        C1446   1.493       .  S
C22        C1431   1.476       .  S
C23        C1413   1.477       .  S
C24        C1392   1.485       .  S
O35          C51   1.274       .  A
O35         Zn41   2.011       .  S
C36        C1338   1.472       .  S
C36          O52   1.272       .  A
C36          O49   1.275       .  A
O37          C50   1.274       .  A
O37         Cd44   2.068       .  S
O38          C56   1.276       .  A
O38         Cd47   2.073       .  S
O39          C53   1.277       .  A
O39         Cd43   2.086       .  S
O40          C51   1.276       .  A
O40         Cd43   2.085       .  S
Zn41         O52   1.999       .  S
Zn41         O54   2.028       .  S
Zn41         O46   1.945       .  S
O42          C53   1.277       .  A
O42         Cd47   2.087       .  S
Cd43         O45   2.082       .  S
Cd43         O46   2.009       .  S
Cd44         O48   2.071       .  S
Cd44         O57   2.089       .  S
Cd44         O46   2.005       .  S
O45          C55   1.276       .  A
O46         Cd47   2.007       .  S
Cd47         O49   2.087       .  S
O48          C55   1.275       .  A
C50        C1305   1.473       .  S
C50          O54   1.274       .  A
C51        C1323   1.471       .  S
C53        C1377   1.479       .  S
C55        C1449   1.472       .  S
C56        C1356   1.476       .  S
C56          O57   1.277       .  A
O58          C74   1.274       .  A
O58         Zn64   2.025       .  S
C59        C1428   1.470       .  S
C59          O75   1.274       .  A
C59          O72   1.272       .  A
O60          C73   1.274       .  A
O60         Cd67   2.068       .  S
O61          C79   1.275       .  A
O61         Cd70   2.074       .  S
O62          C76   1.273       .  A
O62         Cd66   2.064       .  S
O63          C74   1.273       .  A
O63         Cd66   2.068       .  S
Zn64         O75   2.021       .  S
Zn64         O77   2.026       .  S
Zn64         O69   1.943       .  S
O65          C76   1.276       .  A
O65         Cd70   2.079       .  S
Cd66         O68   2.052       .  S
Cd66         O69   1.994       .  S
Cd67         O71   2.084       .  S
Cd67         O80   2.068       .  S
Cd67         O69   2.007       .  S
O68          C78   1.272       .  A
O69         Cd70   2.007       .  S
Cd70         O72   2.066       .  S
O71          C78   1.275       .  A
C73        C1269   1.471       .  S
C73          O77   1.276       .  A
C74        C1287   1.469       .  S
C76        C1233   1.470       .  S
C78        C1248   1.469       .  S
C79        C1212   1.467       .  S
C79          O80   1.276       .  A
O81          C97   1.273       .  A
O81         Zn87   2.015       .  S
C82        C1176   1.468       .  S
C82          O98   1.275       .  A
C82          O95   1.273       .  A
O83          C96   1.275       .  A
O83         Cd90   2.080       .  S
O84         C102   1.273       .  A
O84         Cd93   2.060       .  S
O85          C99   1.275       .  A
O85         Cd89   2.083       .  S
O86          C97   1.274       .  A
O86         Cd89   2.077       .  S
Zn87         O98   2.016       .  S
Zn87        O100   1.999       .  S
Zn87         O92   1.933       .  S
O88          C99   1.272       .  A
O88         Cd93   2.054       .  S
Cd89         O91   2.065       .  S
Cd89         O92   2.003       .  S
Cd90         O94   2.075       .  S
Cd90        O103   2.092       .  S
Cd90         O92   2.012       .  S
O91         C101   1.276       .  A
O92         Cd93   1.991       .  S
Cd93         O95   2.064       .  S
O94         C101   1.276       .  A
C96        C1197   1.469       .  S
C96         O100   1.272       .  A
C97        C1410   1.472       .  S
C99        C1122   1.469       .  S
C101       C1140   1.467       .  S
C102       C1161   1.472       .  S
C102        O103   1.276       .  A
O104        C120   1.272       .  A
O104       Zn110   1.994       .  S
C105       C1035   1.472       .  S
C105        O121   1.274       .  A
C105        O118   1.274       .  A
O106        C119   1.271       .  A
O106       Cd113   2.064       .  S
O107        C125   1.275       .  A
O107       Cd116   2.064       .  S
O108        C122   1.276       .  A
O108       Cd112   2.081       .  S
O109        C120   1.273       .  A
O109       Cd112   2.066       .  S
Zn110       O121   2.018       .  S
Zn110       O123   2.012       .  S
Zn110       O115   1.932       .  S
O111        C122   1.276       .  A
O111       Cd116   2.077       .  S
Cd112       O114   2.068       .  S
Cd112       O115   1.998       .  S
Cd113       O117   2.078       .  S
Cd113       O126   2.052       .  S
Cd113       O115   2.002       .  S
O114        C124   1.274       .  A
O115       Cd116   1.996       .  S
Cd116       O118   2.075       .  S
O117        C124   1.275       .  A
C119       C1050   1.464       .  S
C119        O123   1.273       .  A
C120       C1068   1.464       .  S
C122       C1086   1.475       .  S
C124       C1104   1.469       .  S
C125       C1395   1.461       .  S
C125        O126   1.272       .  A
N127        C132   1.352       .  A
N127        C131   1.351       .  A
N127        H159   1.042       .  S
N128        C135   1.352       .  A
N128        C136   1.352   1_565  A
N129        C134   1.350       .  A
N129        C133   1.353       .  A
N129        H160   1.042       .  S
N130        C137   1.351       .  A
N130        C138   1.351   1_565  A
C131        C139   1.387       .  A
C131        C147   1.413       .  A
C132        C148   1.413       .  A
C132        C140   1.387       .  A
C133        C141   1.387       .  A
C133        C150   1.413       .  A
C134        C149   1.412       .  A
C134        C142   1.387       .  A
C135        C147   1.414       .  A
C135        C143   1.386       .  A
C136        C150   1.415       .  A
C136        C144   1.386       .  A
C137        C145   1.386       .  A
C137        C148   1.412       .  A
C138        C146   1.386       .  A
C138        C149   1.410       .  A
C139        C140   1.379       .  A
C139        H151   1.082       .  S
C140        H152   1.082       .  S
C141        C142   1.379       .  A
C141        H153   1.082       .  S
C142        H154   1.082       .  S
C143        C144   1.374   1_565  A
C143        H155   1.082       .  S
C144        H156   1.082       .  S
C145        C146   1.373   1_565  A
C145        H157   1.081       .  S
C146        H158   1.081       .  S
C147       C1089   1.491       .  S
C148       C1017   1.489       .  S
C149        C999   1.487       .  S
C150       C1374   1.496       .  S
N161        C166   1.350   1_455  A
N161        C165   1.354       .  A
N161        H193   1.039       .  S
N162        C169   1.352       .  A
N162        C170   1.350       .  A
N163        C168   1.351   1_455  A
N163        C167   1.350       .  A
N163        H194   1.040       .  S
N164        C171   1.351       .  A
N164        C172   1.352       .  A
C165        C173   1.387       .  A
C165        C181   1.415       .  A
C166        C182   1.410       .  A
C166        C174   1.385       .  A
C167        C175   1.389       .  A
C167        C184   1.413       .  A
C168        C183   1.407       .  A
C168        C176   1.385       .  A
C169        C181   1.412       .  A
C169        C177   1.386       .  A
C170        C184   1.413       .  A
C170        C178   1.387       .  A
C171        C179   1.387       .  A
C171        C182   1.412       .  A
C172        C180   1.385       .  A
C172        C183   1.410       .  A
C173        C174   1.377   1_455  A
C173        H185   1.082   1_556  S
C174        H186   1.082   1_556  S
C175        C176   1.375   1_455  A
C175        H187   1.082       .  S
C176        H188   1.083       .  S
C177        C178   1.374       .  A
C177        H189   1.082       .  S
C178        H190   1.082       .  S
C179        C180   1.375       .  A
C179        H191   1.082       .  S
C180        H192   1.082       .  S
C181       C1359   1.490       .  S
C182       C1284   1.480       .  S
C183        C963   1.478       .  S
C184        C978   1.483       .  S
N195        C200   1.350   1_545  A
N195        C199   1.351       .  A
N195        H227   1.050       .  S
N196        C203   1.350       .  A
N196        C204   1.350       .  A
N197        C202   1.351   1_545  A
N197        C201   1.350       .  A
N197        H228   1.048       .  S
N198        C205   1.351       .  A
N198        C206   1.353       .  A
C199        C207   1.386       .  A
C199        C215   1.413       .  A
C200        C216   1.414       .  A
C200        C208   1.388   1_565  A
C201        C209   1.384       .  A
C201        C218   1.405       .  A
C202        C217   1.414       .  A
C202        C210   1.388       .  A
C203        C215   1.411       .  A
C203        C211   1.387       .  A
C204        C218   1.407       .  A
C204        C212   1.386       .  A
C205        C213   1.387       .  A
C205        C216   1.415       .  A
C206        C214   1.386       .  A
C206        C217   1.415       .  A
C207        C208   1.377       .  A
C207        H219   1.082       .  S
C208        H220   1.082   1_546  S
C209        C210   1.376   1_545  A
C209        H221   1.082       .  S
C210        H222   1.082       .  S
C211        C212   1.372       .  A
C211        H223   1.082       .  S
C212        H224   1.082       .  S
C213        C214   1.373       .  A
C213        H225   1.082       .  S
C214        H226   1.081       .  S
C215       C1266   1.476       .  S
C216       C1194   1.477       .  S
C217        C927   1.491       .  S
C218        C942   1.472       .  S
N229        C234   1.354       .  A
N229        C233   1.355       .  A
N229        H261   1.043       .  S
N230        C237   1.348   1_655  A
N230        C238   1.350       .  A
N231        C236   1.350       .  A
N231        C235   1.350       .  A
N231        H262   1.042       .  S
N232        C239   1.350   1_655  A
N232        C240   1.350       .  A
C233        C241   1.387       .  A
C233        C249   1.417       .  A
C234        C250   1.418       .  A
C234        C242   1.387       .  A
C235        C243   1.388       .  A
C235        C252   1.410       .  A
C236        C251   1.410       .  A
C236        C244   1.387       .  A
C237        C249   1.409       .  A
C237        C245   1.387       .  A
C238        C252   1.406       .  A
C238        C246   1.385       .  A
C239        C247   1.387       .  A
C239        C250   1.411       .  A
C240        C248   1.385       .  A
C240        C251   1.408       .  A
C241        C242   1.376       .  A
C241        H253   1.081       .  S
C242        H254   1.081       .  S
C243        C244   1.376       .  A
C243        H255   1.082       .  S
C244        H256   1.082       .  S
C245        C246   1.374   1_455  A
C245        H257   1.082   1_556  S
C246        H258   1.082   1_556  S
C247        C248   1.374   1_455  A
C247        H259   1.082       .  S
C248        H260   1.082       .  S
C249       C1107   1.488       .  S
C250        C888   1.492       .  S
C251        C906   1.480       .  S
C252       C1179   1.475       .  S
O263        C279   1.271       .  A
O263       Zn269   2.006       .  S
C264        C852   1.465       .  S
C264        O280   1.271       .  A
C264        O277   1.274       .  A
O265        C278   1.273       .  A
O265       Cd272   2.070       .  S
O266        C284   1.275       .  A
O266       Cd275   2.081       .  S
O267        C281   1.273       .  A
O267       Cd271   2.058       .  S
O268        C279   1.271       .  A
O268       Cd271   2.061       .  S
Zn269       O280   1.992       .  S
Zn269       O282   1.992       .  S
Zn269       O274   1.930       .  S
O270        C281   1.277       .  A
O270       Cd275   2.080       .  S
Cd271       O273   2.064       .  S
Cd271       O274   1.996       .  S
Cd272       O276   2.062       .  S
Cd272       O285   2.063       .  S
Cd272       O274   1.999       .  S
O273        C283   1.274       .  A
O274       Cd275   2.005       .  S
Cd275       O277   2.074       .  S
O276        C283   1.273       .  A
C278        C816   1.464       .  S
C278        O282   1.272       .  A
C279        C834   1.467       .  S
C281       C1014   1.467       .  S
C283        C873   1.465       .  S
C284        C891   1.470       .  S
C284        O285   1.274       .  A
N286        C291   1.354       .  A
N286        C290   1.352   1_655  A
N286        H318   1.042       .  S
N287        C294   1.350       .  A
N287        C295   1.351   1_565  A
N288        C293   1.349   1_455  A
N288        C292   1.354       .  A
N288        H319   1.040       .  S
N289        C296   1.354       .  A
N289        C297   1.351   1_565  A
C290        C298   1.386       .  A
C290        C306   1.413       .  A
C291        C307   1.415       .  A
C291        C299   1.386       .  A
C292        C300   1.388       .  A
C292        C309   1.416       .  A
C293        C308   1.408       .  A
C293        C301   1.386       .  A
C294        C306   1.411       .  A
C294        C302   1.387       .  A
C295        C309   1.413       .  A
C295        C303   1.386       .  A
C296        C304   1.387       .  A
C296        C307   1.416       .  A
C297        C305   1.385       .  A
C297        C308   1.411       .  A
C298        C299   1.377   1_455  A
C298        H310   1.082       .  S
C299        H311   1.082       .  S
C300        C301   1.378   1_455  A
C300        H312   1.082       .  S
C301        H313   1.082       .  S
C302        C303   1.373   1_565  A
C302        H314   1.081       .  S
C303        H315   1.082       .  S
C304        C305   1.374   1_565  A
C304        H316   1.081       .  S
C305        H317   1.082       .  S
C306        C870   1.488       .  S
C307        C762   1.500       .  S
C308        C780   1.474       .  S
C309        C798   1.490       .  S
O320        C336   1.272       .  A
O320       Zn326   2.012       .  S
C321        C708   1.467       .  S
C321        O337   1.274       .  A
C321        O334   1.273       .  A
O322        C335   1.274       .  A
O322       Cd329   2.070       .  S
O323        C341   1.275       .  A
O323       Cd332   2.079       .  S
O324        C338   1.273       .  A
O324       Cd328   2.052       .  S
O325        C336   1.272       .  A
O325       Cd328   2.064       .  S
Zn326       O337   2.015       .  S
Zn326       O339   2.012       .  S
Zn326       O331   1.930       .  S
O327        C338   1.274       .  A
O327       Cd332   2.071       .  S
Cd328       O330   2.056       .  S
Cd328       O331   1.998       .  S
Cd329       O333   2.056       .  S
Cd329       O342   2.055       .  S
Cd329       O331   1.995       .  S
O330        C340   1.272       .  A
O331       Cd332   2.005       .  S
Cd332       O334   2.065       .  S
O333        C340   1.272       .  A
C335        C729   1.469       .  S
C335        O339   1.274       .  A
C336        C744   1.467       .  S
C338        C996   1.463       .  S
C340        C981   1.461       .  S
C341        C801   1.468       .  S
C341        O342   1.272       .  A
O343        C359   1.274       .  A
O343       Zn349   2.023       .  S
C344        C960   1.470       .  S
C344        O360   1.276       .  A
C344        O357   1.274       .  A
O345        C358   1.271       .  A
O345       Cd352   2.046       .  S
O346        C364   1.274       .  A
O346       Cd355   2.077       .  S
O347        C361   1.277       .  A
O347       Cd351   2.084       .  S
O348        C359   1.272       .  A
O348       Cd351   2.063       .  S
Zn349       O360   2.026       .  S
Zn349       O362   2.029       .  S
Zn349       O354   1.944       .  S
O350        C361   1.275       .  A
O350       Cd355   2.066       .  S
Cd351       O353   2.073       .  S
Cd351       O354   2.004       .  S
Cd352       O356   2.056       .  S
Cd352       O365   2.056       .  S
Cd352       O354   1.993       .  S
O353        C363   1.274       .  A
O354       Cd355   2.000       .  S
Cd355       O357   2.067       .  S
O356        C363   1.273       .  A
C358        C945   1.465       .  S
C358        O362   1.275       .  A
C359        C783   1.470       .  S
C361        C654   1.471       .  S
C363        C675   1.465       .  S
C364        C690   1.468       .  S
C364        O365   1.271       .  A
O366        C382   1.274       .  A
O366       Zn372   2.017       .  S
C367        C621   1.466       .  S
C367        O383   1.273       .  A
C367        O380   1.274       .  A
O368        C381   1.273       .  A
O368       Cd375   2.072       .  S
O369        C387   1.275       .  A
O369       Cd378   2.070       .  S
O370        C384   1.276       .  A
O370       Cd374   2.091       .  S
O371        C382   1.275       .  A
O371       Cd374   2.067       .  S
Zn372       O383   2.008       .  S
Zn372       O385   2.015       .  S
Zn372       O377   1.940       .  S
O373        C384   1.273       .  A
O373       Cd378   2.068       .  S
Cd374       O376   2.082       .  S
Cd374       O377   2.000       .  S
Cd375       O379   2.060       .  S
Cd375       O388   2.066       .  S
Cd375       O377   2.000       .  S
O376        C386   1.277       .  A
O377       Cd378   2.000       .  S
Cd378       O380   2.071       .  S
O379        C386   1.273       .  A
C381        C639   1.471       .  S
C381        O385   1.273       .  A
C382        C600   1.468       .  S
C384        C765   1.477       .  S
C386        C924   1.469       .  S
C387        C909   1.465       .  S
C387        O388   1.274       .  A
N389        C394   1.353       .  A
N389        C393   1.355       .  A
N389        H421   1.041       .  S
N390        C397   1.350       .  A
N390        C398   1.350       .  A
N391        C396   1.351       .  A
N391        C395   1.352       .  A
N391        H422   1.040       .  S
N392        C399   1.350       .  A
N392        C400   1.351       .  A
C393        C401   1.389       .  A
C393        C409   1.418       .  A
C394        C410   1.411       .  A
C394        C402   1.385       .  A
C395        C403   1.387       .  A
C395        C412   1.410       .  A
C396        C411   1.411       .  A
C396        C404   1.388       .  A
C397        C409   1.415       .  A
C397        C405   1.388       .  A
C398        C412   1.406       .  A
C398        C406   1.383       .  A
C399        C407   1.386       .  A
C399        C410   1.408       .  A
C400        C408   1.387       .  A
C400        C411   1.410       .  A
C401        C402   1.374       .  A
C401        H413   1.081       .  S
C402        H414   1.082       .  S
C403        C404   1.374       .  A
C403        H415   1.082       .  S
C404        H416   1.082       .  S
C405        C406   1.373       .  A
C405        H417   1.082       .  S
C406        H418   1.082       .  S
C407        C408   1.371       .  A
C407        H419   1.082       .  S
C408        H420   1.082       .  S
C409        C693   1.492       .  S
C410        C747   1.475       .  S
C411        C855   1.474       .  S
C412        C636   1.475       .  S
N423        C428   1.355       .  A
N423        C427   1.353       .  A
N423        H455   1.041       .  S
N424        C431   1.350       .  A
N424        C432   1.350       .  A
N425        C430   1.353       .  A
N425        C429   1.354       .  A
N425        H456   1.041       .  S
N426        C433   1.353       .  A
N426        C434   1.354       .  A
C427        C435   1.388       .  A
C427        C443   1.415       .  A
C428        C444   1.416       .  A
C428        C436   1.387       .  A
C429        C437   1.387       .  A
C429        C446   1.414       .  A
C430        C445   1.416       .  A
C430        C438   1.387       .  A
C431        C443   1.409       .  A
C431        C439   1.387       .  A
C432        C446   1.409       .  A
C432        C440   1.386       .  A
C433        C441   1.385       .  A
C433        C444   1.414       .  A
C434        C442   1.386       .  A
C434        C445   1.415       .  A
C435        C436   1.372       .  A
C435        H447   1.082       .  S
C436        H448   1.081       .  S
C437        C438   1.373       .  A
C437        H449   1.082       .  S
C438        H450   1.081       .  S
C439        C440   1.373       .  A
C439        H451   1.082       .  S
C440        H452   1.082       .  S
C441        C442   1.372       .  A
C441        H453   1.082       .  S
C442        H454   1.082       .  S
C443       C1071   1.474       .  S
C444       C1158   1.494       .  S
C445       C1251   1.494       .  S
C446       C1341   1.479       .  S
N457        C462   1.351       .  A
N457        C461   1.349       .  A
N457        H489   1.040       .  S
N458        C465   1.351       .  A
N458        C466   1.351       .  A
N459        C464   1.354       .  A
N459        C463   1.354       .  A
N459        H490   1.041       .  S
N460        C467   1.353       .  A
N460        C468   1.351       .  A
C461        C469   1.385       .  A
C461        C477   1.405       .  A
C462        C478   1.412       .  A
C462        C470   1.388       .  A
C463        C471   1.386       .  A
C463        C480   1.415       .  A
C464        C479   1.416       .  A
C464        C472   1.387       .  A
C465        C477   1.406       .  A
C465        C473   1.384       .  A
C466        C480   1.413       .  A
C466        C474   1.388       .  A
C467        C475   1.385       .  A
C467        C478   1.413       .  A
C468        C476   1.388       .  A
C468        C479   1.416       .  A
C469        C470   1.376       .  A
C469        H481   1.083       .  S
C470        H482   1.082       .  S
C471        C472   1.378       .  A
C471        H483   1.082       .  S
C472        H484   1.082       .  S
C473        C474   1.373       .  A
C473        H485   1.082       .  S
C474        H486   1.081       .  S
C475        C476   1.374       .  A
C475        H487   1.082       .  S
C476        H488   1.081       .  S
C477        C618   1.473       .  S
C478        C657   1.489       .  S
C479       C1230   1.492       .  S
C480       C1125   1.490       .  S
N491        C496   1.350       .  A
N491        C495   1.352       .  A
N491        H523   1.039       .  S
N492        C499   1.352       .  A
N492        C500   1.351       .  A
N493        C498   1.351       .  A
N493        C497   1.351       .  A
N493        H524   1.034       .  S
N494        C501   1.350       .  A
N494        C502   1.350       .  A
C495        C503   1.388       .  A
C495        C511   1.414       .  A
C496        C512   1.407       .  A
C496        C504   1.385       .  A
C497        C505   1.387       .  A
C497        C514   1.412       .  A
C498        C513   1.413       .  A
C498        C506   1.388       .  A
C499        C511   1.413       .  A
C499        C507   1.387       .  A
C500        C514   1.410       .  A
C500        C508   1.385       .  A
C501        C509   1.386       .  A
C501        C512   1.408       .  A
C502        C510   1.387       .  A
C502        C513   1.411       .  A
C503        C504   1.377       .  A
C503        H515   1.082       .  S
C504        H516   1.082       .  S
C505        C506   1.377       .  A
C505        H517   1.082       .  S
C506        H518   1.082       .  S
C507        C508   1.371       .  A
C507        H519   1.081       .  S
C508        H520   1.082       .  S
C509        C510   1.373       .  A
C509        H521   1.082       .  S
C510        H522   1.082       .  S
C511       C1143   1.489       .  S
C512        C603   1.472       .  S
C513        C837   1.473       .  S
C514       C1032   1.473       .  S
N525        C530   1.353       .  A
N525        C529   1.353       .  A
N525        H557   1.039       .  S
N526        C533   1.351       .  A
N526        C534   1.349       .  A
N527        C532   1.355       .  A
N527        C531   1.353       .  A
N527        H558   1.041       .  S
N528        C535   1.350       .  A
N528        C536   1.350       .  A
C529        C537   1.388       .  A
C529        C545   1.415       .  A
C530        C546   1.412       .  A
C530        C538   1.386       .  A
C531        C539   1.388       .  A
C531        C548   1.414       .  A
C532        C547   1.414       .  A
C532        C540   1.387       .  A
C533        C545   1.410       .  A
C533        C541   1.387       .  A
C534        C548   1.409       .  A
C534        C542   1.387       .  A
C535        C543   1.385       .  A
C535        C546   1.407       .  A
C536        C544   1.387       .  A
C536        C547   1.410       .  A
C537        C538   1.373       .  A
C537        H549   1.082       .  S
C538        H550   1.082       .  S
C539        C540   1.372       .  A
C539        H551   1.082       .  S
C540        H552   1.082       .  S
C541        C542   1.372       .  A
C541        H553   1.082       .  S
C542        H554   1.082       .  S
C543        C544   1.372       .  A
C543        H555   1.082       .  S
C544        H556   1.082       .  S
C545        C726   1.477       .  S
C546       C1302   1.477       .  S
C547       C1053   1.482       .  S
C548        C819   1.472       .  S
N559        C564   1.352       .  A
N559        C563   1.354       .  A
N559        H591   1.034       .  S
N560        C567   1.351       .  A
N560        C568   1.351       .  A
N561        C566   1.351       .  A
N561        C565   1.353       .  A
N561        H592   1.035       .  S
N562        C569   1.350       .  A
N562        C570   1.351       .  A
C563        C571   1.388       .  A
C563        C579   1.415       .  A
C564        C580   1.410       .  A
C564        C572   1.386       .  A
C565        C573   1.388       .  A
C565        C582   1.414       .  A
C566        C581   1.408       .  A
C566        C574   1.385       .  A
C567        C579   1.411       .  A
C567        C575   1.386       .  A
C568        C582   1.412       .  A
C568        C576   1.387       .  A
C569        C577   1.387       .  A
C569        C580   1.410       .  A
C570        C578   1.386       .  A
C570        C581   1.410       .  A
C571        C572   1.375       .  A
C571        H583   1.082       .  S
C572        H584   1.083       .  S
C573        C574   1.376       .  A
C573        H585   1.082       .  S
C574        H586   1.083       .  S
C575        C576   1.371       .  A
C575        H587   1.082       .  S
C576        H588   1.081       .  S
C577        C578   1.374       .  A
C577        H589   1.082       .  S
C578        H590   1.082       .  S
C579        C672   1.486       .  S
C580        C711   1.475       .  S
C581       C1320   1.478       .  S
C582       C1215   1.486       .  S
C593        N599   1.340       .  A
C593        C598   1.385       .  A
C593        C594   1.401       .  A
C594        C595   1.399       .  A
C594        H605   1.082       .  S
C595        C604   1.377       .  A
C595        C596   1.385       .  A
C596        N602   1.341       .  A
C596        C597   1.404       .  A
C597        C598   1.402       .  A
C597        H606   1.082       .  S
C598        C601   1.379       .  A
N599        C600   1.354       .  A
N599        H609   1.045       .  S
C600        C601   1.396       .  A
C601        H607   1.082       .  S
N602        C603   1.354       .  A
N602        H610   1.045       .  S
C603        C604   1.391       .  A
C604        H608   1.082       .  S
C611        N617   1.346       .  A
C611        C616   1.386       .  A
C611        C612   1.405       .  A
C612        C613   1.405       .  A
C612        H623   1.082       .  S
C613        C622   1.380       .  A
C613        C614   1.385       .  A
C614        N620   1.340       .  A
C614        C615   1.398       .  A
C615        C616   1.397       .  A
C615        H624   1.083       .  S
C616        C619   1.370       .  A
N617        C618   1.355       .  A
N617        H627   1.044       .  S
C618        C619   1.389       .  A
C619        H625   1.082       .  S
N620        C621   1.353       .  A
N620        H628   1.045       .  S
C621        C622   1.396       .  A
C622        H626   1.082       .  S
C629        N635   1.339       .  A
C629        C634   1.385       .  A
C629        C630   1.400       .  A
C630        C631   1.399       .  A
C630        H641   1.082       .  S
C631        C640   1.374       .  A
C631        C632   1.384       .  A
C632        N638   1.345       .  A
C632        C633   1.406       .  A
C633        C634   1.405       .  A
C633        H642   1.082       .  S
C634        C637   1.382       .  A
N635        C636   1.352       .  A
N635        H645   1.045       .  S
C636        C637   1.394       .  A
C637        H643   1.082       .  S
N638        C639   1.357       .  A
N638        H646   1.045       .  S
C639        C640   1.394       .  A
C640        H644   1.083       .  S
C647        N653   1.342       .  A
C647        C652   1.385       .  A
C647        C648   1.402       .  A
C648        C649   1.401       .  A
C648        H659   1.082       .  S
C649        C658   1.376       .  A
C649        C650   1.384       .  A
C650        N656   1.344       .  A
C650        C651   1.405       .  A
C651        C652   1.404       .  A
C651        H660   1.082       .  S
C652        C655   1.381       .  A
N653        C654   1.355       .  A
N653        H663   1.045       .  S
C654        C655   1.396       .  A
C655        H661   1.082       .  S
N656        C657   1.357       .  A
N656        H664   1.045       .  S
C657        C658   1.397       .  A
C658        H662   1.082       .  S
C665        N671   1.340       .  A
C665        C670   1.384       .  A
C665        C666   1.399       .  A
C666        C667   1.398       .  A
C666        H677   1.082       .  S
C667        C676   1.373       .  A
C667        C668   1.385       .  A
C668        N674   1.344       .  A
C668        C669   1.404       .  A
C669        C670   1.404       .  A
C669        H678   1.082       .  S
C670        C673   1.378       .  A
N671        C672   1.355       .  A
N671        H681   1.045       .  S
C672        C673   1.398       .  A
C673        H679   1.082       .  S
N674        C675   1.356       .  A
N674        H682   1.045       .  S
C675        C676   1.392       .  A
C676        H680   1.083       .  S
C683        N689   1.342       .  A
C683        C688   1.385       .  A
C683        C684   1.399       .  A
C684        C685   1.399       .  A
C684        H695   1.082       .  S
C685        C694   1.371       .  A
C685        C686   1.383       .  A
C686        N692   1.345       .  A
C686        C687   1.404       .  A
C687        C688   1.404       .  A
C687        H696   1.082       .  S
C688        C691   1.377       .  A
N689        C690   1.353       .  A
N689        H699   1.045       .  S
C690        C691   1.396       .  A
C691        H697   1.082       .  S
N692        C693   1.358       .  A
N692        H700   1.045       .  S
C693        C694   1.397       .  A
C694        H698   1.082       .  S
C701        N707   1.339       .  A
C701        C706   1.385       .  A
C701        C702   1.398       .  A
C702        C703   1.397       .  A
C702        H713   1.082       .  S
C703        C712   1.371       .  A
C703        C704   1.385       .  A
C704        N710   1.346       .  A
C704        C705   1.406       .  A
C705        C706   1.406       .  A
C705        H714   1.082       .  S
C706        C709   1.381       .  A
N707        C708   1.353       .  A
N707        H717   1.045       .  S
C708        C709   1.397       .  A
C709        H715   1.082       .  S
N710        C711   1.356       .  A
N710        H718   1.044       .  S
C711        C712   1.390       .  A
C712        H716   1.082       .  S
C719        N725   1.340       .  A
C719        C724   1.385       .  A
C719        C720   1.400       .  A
C720        C721   1.399       .  A
C720        H731   1.082       .  S
C721        C730   1.374       .  A
C721        C722   1.385       .  A
C722        N728   1.344       .  A
C722        C723   1.405       .  A
C723        C724   1.404       .  A
C723        H732   1.082       .  S
C724        C727   1.380       .  A
N725        C726   1.353       .  A
N725        H735   1.045       .  S
C726        C727   1.394       .  A
C727        H733   1.082       .  S
N728        C729   1.356       .  A
N728        H736   1.045       .  S
C729        C730   1.393       .  A
C730        H734   1.083       .  S
C737        N743   1.341       .  A
C737        C742   1.385       .  A
C737        C738   1.401       .  A
C738        C739   1.399       .  A
C738        H749   1.082       .  S
C739        C748   1.375       .  A
C739        C740   1.386       .  A
C740        N746   1.343       .  A
C740        C741   1.404       .  A
C741        C742   1.403       .  A
C741        H750   1.082       .  S
C742        C745   1.379       .  A
N743        C744   1.354       .  A
N743        H753   1.045       .  S
C744        C745   1.395       .  A
C745        H751   1.082       .  S
N746        C747   1.354       .  A
N746        H754   1.044       .  S
C747        C748   1.392       .  A
C748        H752   1.082       .  S
C755        N761   1.346       .  A
C755        C760   1.382       .  A
C755        C756   1.407       .  A
C756        C757   1.407       .  A
C756        H767   1.082       .  S
C757        C766   1.383       .  A
C757        C758   1.384       .  A
C758        N764   1.343       .  A
C758        C759   1.403       .  A
C759        C760   1.402       .  A
C759        H768   1.082       .  S
C760        C763   1.376       .  A
N761        C762   1.360       .  A
N761        H771   1.044       .  S
C762        C763   1.399       .  A
C763        H769   1.082       .  S
N764        C765   1.356       .  A
N764        H772   1.045       .  S
C765        C766   1.398       .  A
C766        H770   1.082       .  S
C773        N779   1.346       .  A
C773        C778   1.386       .  A
C773        C774   1.404       .  A
C774        C775   1.405       .  A
C774        H785   1.082       .  S
C775        C784   1.378       .  A
C775        C776   1.385       .  A
C776        N782   1.342       .  A
C776        C777   1.400       .  A
C777        C778   1.399       .  A
C777        H786   1.082       .  S
C778        C781   1.372       .  A
N779        C780   1.355       .  A
N779        H789   1.044       .  S
C780        C781   1.390       .  A
C781        H787   1.082       .  S
N782        C783   1.354       .  A
N782        H790   1.045       .  S
C783        C784   1.396       .  A
C784        H788   1.082       .  S
C791        N797   1.343       .  A
C791        C796   1.384       .  A
C791        C792   1.402       .  A
C792        C793   1.401       .  A
C792        H803   1.082       .  S
C793        C802   1.375       .  A
C793        C794   1.385       .  A
C794        N800   1.344       .  A
C794        C795   1.403       .  A
C795        C796   1.403       .  A
C795        H804   1.082       .  S
C796        C799   1.376       .  A
N797        C798   1.357       .  A
N797        H807   1.045       .  S
C798        C799   1.398       .  A
C799        H805   1.082       .  S
N800        C801   1.355       .  A
N800        H808   1.045       .  S
C801        C802   1.394       .  A
C802        H806   1.083       .  S
C809        N815   1.344       .  A
C809        C814   1.385       .  A
C809        C810   1.405       .  A
C810        C811   1.404       .  A
C810        H821   1.082       .  S
C811        C820   1.380       .  A
C811        C812   1.386       .  A
C812        N818   1.337       .  A
C812        C813   1.396       .  A
C813        C814   1.395       .  A
C813        H822   1.083       .  S
C814        C817   1.369       .  A
N815        C816   1.356       .  A
N815        H825   1.045       .  S
C816        C817   1.391       .  A
C817        H823   1.083       .  S
N818        C819   1.351       .  A
N818        H826   1.045       .  S
C819        C820   1.394       .  A
C820        H824   1.082       .  S
C827        N833   1.341       .  A
C827        C832   1.385       .  A
C827        C828   1.400       .  A
C828        C829   1.399       .  A
C828        H839   1.082       .  S
C829        C838   1.372       .  A
C829        C830   1.386       .  A
C830        N836   1.344       .  A
C830        C831   1.403       .  A
C831        C832   1.403       .  A
C831        H840   1.082       .  S
C832        C835   1.377       .  A
N833        C834   1.354       .  A
N833        H843   1.045       .  S
C834        C835   1.395       .  A
C835        H841   1.082       .  S
N836        C837   1.354       .  A
N836        H844   1.044       .  S
C837        C838   1.390       .  A
C838        H842   1.082       .  S
C845        N851   1.344       .  A
C845        C850   1.385       .  A
C845        C846   1.403       .  A
C846        C847   1.403       .  A
C846        H857   1.082       .  S
C847        C856   1.378       .  A
C847        C848   1.386       .  A
C848        N854   1.339       .  A
C848        C849   1.399       .  A
C849        C850   1.398       .  A
C849        H858   1.083       .  S
C850        C853   1.371       .  A
N851        C852   1.355       .  A
N851        H861   1.045       .  S
C852        C853   1.393       .  A
C853        H859   1.083       .  S
N854        C855   1.352       .  A
N854        H862   1.045       .  S
C855        C856   1.393       .  A
C856        H860   1.082       .  S
C863        N869   1.342       .  A
C863        C868   1.384       .  A
C863        C864   1.402       .  A
C864        C865   1.401       .  A
C864        H875   1.082       .  S
C865        C874   1.376       .  A
C865        C866   1.385       .  A
C866        N872   1.342       .  A
C866        C867   1.401       .  A
C867        C868   1.401       .  A
C867        H876   1.082       .  S
C868        C871   1.374       .  A
N869        C870   1.357       .  A
N869        H879   1.044       .  S
C870        C871   1.397       .  A
C871        H877   1.082       .  S
N872        C873   1.355       .  A
N872        H880   1.045       .  S
C873        C874   1.394       .  A
C874        H878   1.082       .  S
C881        N887   1.341       .  A
C881        C886   1.383       .  A
C881        C882   1.402       .  A
C882        C883   1.401       .  A
C882        H893   1.082       .  S
C883        C892   1.376       .  A
C883        C884   1.385       .  A
C884        N890   1.344       .  A
C884        C885   1.404       .  A
C885        C886   1.403       .  A
C885        H894   1.082       .  S
C886        C889   1.378       .  A
N887        C888   1.358       .  A
N887        H897   1.044       .  S
C888        C889   1.398       .  A
C889        H895   1.082       .  S
N890        C891   1.356       .  A
N890        H898   1.045       .  S
C891        C892   1.394       .  A
C892        H896   1.083       .  S
C899        N905   1.342       .  A
C899        C904   1.385       .  A
C899        C900   1.402       .  A
C900        C901   1.401       .  A
C900        H911   1.082       .  S
C901        C910   1.376       .  A
C901        C902   1.385       .  A
C902        N908   1.342       .  A
C902        C903   1.401       .  A
C903        C904   1.400       .  A
C903        H912   1.082       .  S
C904        C907   1.375       .  A
N905        C906   1.355       .  A
N905        H915   1.045       .  S
C906        C907   1.394       .  A
C907        H913   1.082       .  S
N908        C909   1.354       .  A
N908        H916   1.045       .  S
C909        C910   1.394       .  A
C910        H914   1.082       .  S
C917        N923   1.342       .  A
C917        C922   1.385       .  A
C917        C918   1.403       .  A
C918        C919   1.401       .  A
C918        H929   1.082       .  S
C919        C928   1.378       .  A
C919        C920   1.383       .  A
C920        N926   1.341       .  A
C920        C921   1.403       .  A
C921        C922   1.402       .  A
C921        H930   1.082       .  S
C922        C925   1.379       .  A
N923        C924   1.356       .  A
N923        H933   1.045       .  S
C924        C925   1.395       .  A
C925        H931   1.082       .  S
N926        C927   1.358       .  A
N926        H934   1.045       .  S
C927        C928   1.397       .  A
C928        H932   1.082       .  S
C935        N941   1.344       .  A
C935        C940   1.386       .  A
C935        C936   1.403       .  A
C936        C937   1.403       .  A
C936        H947   1.082       .  S
C937        C946   1.376       .  A
C937        C938   1.385       .  A
C938        N944   1.341       .  A
C938        C939   1.400       .  A
C939        C940   1.399       .  A
C939        H948   1.082       .  S
C940        C943   1.373       .  A
N941        C942   1.354       .  A
N941        H951   1.044       .  S
C942        C943   1.391       .  A
C943        H949   1.082       .  S
N944        C945   1.353       .  A
N944        H952   1.045       .  S
C945        C946   1.396       .  A
C946        H950   1.082       .  S
C953        N959   1.341       .  A
C953        C958   1.385       .  A
C953        C954   1.399       .  A
C954        C955   1.399       .  A
C954        H965   1.082       .  S
C955        C964   1.372       .  A
C955        C956   1.385       .  A
C956        N962   1.347       .  A
C956        C957   1.406       .  A
C957        C958   1.406       .  A
C957        H966   1.082       .  S
C958        C961   1.380       .  A
N959        C960   1.353       .  A
N959        H969   1.045       .  S
C960        C961   1.397       .  A
C961        H967   1.082       .  S
N962        C963   1.356       .  A
N962        H970   1.044       .  S
C963        C964   1.391       .  A
C964        H968   1.082       .  S
C971        N977   1.341       .  A
C971        C976   1.384       .  A
C971        C972   1.400       .  A
C972        C973   1.399       .  A
C972        H983   1.082       .  S
C973        C982   1.374       .  A
C973        C974   1.385       .  A
C974        N980   1.340       .  A
C974        C975   1.400       .  A
C975        C976   1.400       .  A
C975        H984   1.082       .  S
C976        C979   1.373       .  A
N977        C978   1.355       .  A
N977        H987   1.045       .  S
C978        C979   1.396       .  A
C979        H985   1.083       .  S
N980        C981   1.354       .  A
N980        H988   1.045       .  S
C981        C982   1.393       .  A
C982        H986   1.082       .  S
C989        N995   1.343       .  A
C989        C994   1.385       .  A
C989        C990   1.403       .  A
C990        C991   1.402       .  A
C990       H1001   1.082       .  S
C991       C1000   1.377       .  A
C991        C992   1.383       .  A
C992        N998   1.339       .  A
C992        C993   1.399       .  A
C993        C994   1.398       .  A
C993       H1002   1.082       .  S
C994        C997   1.373       .  A
N995        C996   1.355       .  A
N995       H1005   1.045       .  S
C996        C997   1.392       .  A
C997       H1003   1.083       .  S
N998        C999   1.356       .  A
N998       H1006   1.045       .  S
C999       C1000   1.398       .  A
C1000      H1004   1.082       .  S
C1007      N1013   1.343       .  A
C1007      C1012   1.384       .  A
C1007      C1008   1.404       .  A
C1008      C1009   1.403       .  A
C1008      H1019   1.082       .  S
C1009      C1018   1.378       .  A
C1009      C1010   1.384       .  A
C1010      N1016   1.340       .  A
C1010      C1011   1.401       .  A
C1011      C1012   1.399       .  A
C1011      H1020   1.082       .  S
C1012      C1015   1.376       .  A
N1013      C1014   1.356       .  A
N1013      H1023   1.045       .  S
C1014      C1015   1.393       .  A
C1015      H1021   1.082       .  S
N1016      C1017   1.356       .  A
N1016      H1024   1.045       .  S
C1017      C1018   1.399       .  A
C1018      H1022   1.082       .  S
C1025      N1031   1.340       .  A
C1025      C1030   1.386       .  A
C1025      C1026   1.400       .  A
C1026      C1027   1.399       .  A
C1026      H1037   1.082       .  S
C1027      C1036   1.375       .  A
C1027      C1028   1.384       .  A
C1028      N1034   1.345       .  A
C1028      C1029   1.405       .  A
C1029      C1030   1.404       .  A
C1029      H1038   1.082       .  S
C1030      C1033   1.380       .  A
N1031      C1032   1.352       .  A
N1031      H1041   1.045       .  S
C1032      C1033   1.394       .  A
C1033      H1039   1.082       .  S
N1034      C1035   1.357       .  A
N1034      H1042   1.045       .  S
C1035      C1036   1.394       .  A
C1036      H1040   1.082       .  S
C1043      N1049   1.344       .  A
C1043      C1048   1.385       .  A
C1043      C1044   1.405       .  A
C1044      C1045   1.404       .  A
C1044      H1055   1.082       .  S
C1045      C1054   1.380       .  A
C1045      C1046   1.385       .  A
C1046      N1052   1.338       .  A
C1046      C1047   1.399       .  A
C1047      C1048   1.397       .  A
C1047      H1056   1.082       .  S
C1048      C1051   1.373       .  A
N1049      C1050   1.356       .  A
N1049      H1059   1.045       .  S
C1050      C1051   1.391       .  A
C1051      H1057   1.083       .  S
N1052      C1053   1.353       .  A
N1052      H1060   1.045       .  S
C1053      C1054   1.397       .  A
C1054      H1058   1.082       .  S
C1061      N1067   1.344       .  A
C1061      C1066   1.385       .  A
C1061      C1062   1.405       .  A
C1062      C1063   1.404       .  A
C1062      H1073   1.082       .  S
C1063      C1072   1.381       .  A
C1063      C1064   1.386       .  A
C1064      N1070   1.337       .  A
C1064      C1065   1.397       .  A
C1065      C1066   1.395       .  A
C1065      H1074   1.083       .  S
C1066      C1069   1.370       .  A
N1067      C1068   1.356       .  A
N1067      H1077   1.045       .  S
C1068      C1069   1.391       .  A
C1069      H1075   1.083       .  S
N1070      C1071   1.351       .  A
N1070      H1078   1.045       .  S
C1071      C1072   1.395       .  A
C1072      H1076   1.082       .  S
C1079      N1085   1.345       .  A
C1079      C1084   1.384       .  A
C1079      C1080   1.405       .  A
C1080      C1081   1.404   1_554  A
C1080      H1091   1.082   1_554  S
C1081      C1090   1.379       .  A
C1081      C1082   1.384   1_556  A
C1082      N1088   1.344       .  A
C1082      C1083   1.404       .  A
C1083      C1084   1.403       .  A
C1083      H1092   1.082       .  S
C1084      C1087   1.379       .  A
N1085      C1086   1.357       .  A
N1085      H1095   1.045       .  S
C1086      C1087   1.396       .  A
C1087      H1093   1.082       .  S
N1088      C1089   1.357   1_554  A
N1088      H1096   1.045       .  S
C1089      C1090   1.398       .  A
C1090      H1094   1.082       .  S
C1097      N1103   1.342       .  A
C1097      C1102   1.385       .  A
C1097      C1098   1.404       .  A
C1098      C1099   1.402       .  A
C1098      H1109   1.082       .  S
C1099      C1108   1.380   1_554  A
C1099      C1100   1.384       .  A
C1100      N1106   1.340       .  A
C1100      C1101   1.403       .  A
C1101      C1102   1.401       .  A
C1101      H1110   1.082       .  S
C1102      C1105   1.379       .  A
N1103      C1104   1.355       .  A
N1103      H1113   1.045       .  S
C1104      C1105   1.395       .  A
C1105      H1111   1.082       .  S
N1106      C1107   1.357   1_554  A
N1106      H1114   1.045       .  S
C1107      C1108   1.397       .  A
C1108      H1112   1.082       .  S
C1115      N1121   1.346       .  A
C1115      C1120   1.385       .  A
C1115      C1116   1.405       .  A
C1116      C1117   1.406       .  A
C1116      H1127   1.082       .  S
C1117      C1126   1.379       .  A
C1117      C1118   1.384       .  A
C1118      N1124   1.341       .  A
C1118      C1119   1.400       .  A
C1119      C1120   1.399       .  A
C1119      H1128   1.082       .  S
C1120      C1123   1.372       .  A
N1121      C1122   1.357       .  A
N1121      H1131   1.045       .  S
C1122      C1123   1.393       .  A
C1123      H1129   1.083       .  S
N1124      C1125   1.355       .  A
N1124      H1132   1.045       .  S
C1125      C1126   1.400       .  A
C1126      H1130   1.082       .  S
C1133      N1139   1.344       .  A
C1133      C1138   1.385       .  A
C1133      C1134   1.404       .  A
C1134      C1135   1.403       .  A
C1134      H1145   1.082       .  S
C1135      C1144   1.377       .  A
C1135      C1136   1.383       .  A
C1136      N1142   1.340       .  A
C1136      C1137   1.400       .  A
C1137      C1138   1.399       .  A
C1137      H1146   1.082       .  S
C1138      C1141   1.374       .  A
N1139      C1140   1.356       .  A
N1139      H1149   1.045       .  S
C1140      C1141   1.393       .  A
C1141      H1147   1.082       .  S
N1142      C1143   1.356       .  A
N1142      H1150   1.045       .  S
C1143      C1144   1.399       .  A
C1144      H1148   1.082       .  S
C1151      N1157   1.342       .  A
C1151      C1156   1.383       .  A
C1151      C1152   1.401       .  A
C1152      C1153   1.400       .  A
C1152      H1163   1.082       .  S
C1153      C1162   1.374       .  A
C1153      C1154   1.384       .  A
C1154      N1160   1.347       .  A
C1154      C1155   1.407       .  A
C1155      C1156   1.406       .  A
C1155      H1164   1.082       .  S
C1156      C1159   1.381       .  A
N1157      C1158   1.356       .  A
N1157      H1167   1.045       .  S
C1158      C1159   1.400       .  A
C1159      H1165   1.082       .  S
N1160      C1161   1.357       .  A
N1160      H1168   1.045       .  S
C1161      C1162   1.394       .  A
C1162      H1166   1.083       .  S
C1169      N1175   1.343       .  A
C1169      C1174   1.385       .  A
C1169      C1170   1.404       .  A
C1170      C1171   1.403       .  A
C1170      H1181   1.082       .  S
C1171      C1180   1.379   1_554  A
C1171      C1172   1.385       .  A
C1172      N1178   1.339   1_554  A
C1172      C1173   1.400       .  A
C1173      C1174   1.398       .  A
C1173      H1182   1.082       .  S
C1174      C1177   1.374       .  A
N1175      C1176   1.356       .  A
N1175      H1185   1.045       .  S
C1176      C1177   1.393       .  A
C1177      H1183   1.082       .  S
N1178      C1179   1.353       .  A
N1178      H1186   1.045       .  S
C1179      C1180   1.394       .  A
C1180      H1184   1.082       .  S
C1187      N1193   1.345   1_554  A
C1187      C1192   1.385       .  A
C1187      C1188   1.406       .  A
C1188      C1189   1.405       .  A
C1188      H1199   1.082       .  S
C1189      C1198   1.382       .  A
C1189      C1190   1.385       .  A
C1190      N1196   1.339       .  A
C1190      C1191   1.399       .  A
C1191      C1192   1.397       .  A
C1191      H1200   1.083       .  S
C1192      C1195   1.373   1_554  A
N1193      C1194   1.355       .  A
N1193      H1203   1.044       .  S
C1194      C1195   1.391       .  A
C1195      H1201   1.082       .  S
N1196      C1197   1.354       .  A
N1196      H1204   1.045       .  S
C1197      C1198   1.397       .  A
C1198      H1202   1.082       .  S
C1205      N1211   1.344       .  A
C1205      C1210   1.385       .  A
C1205      C1206   1.404       .  A
C1206      C1207   1.404       .  A
C1206      H1217   1.082       .  S
C1207      C1216   1.378       .  A
C1207      C1208   1.384       .  A
C1208      N1214   1.340       .  A
C1208      C1209   1.399       .  A
C1209      C1210   1.398       .  A
C1209      H1218   1.082       .  S
C1210      C1213   1.373       .  A
N1211      C1212   1.356       .  A
N1211      H1221   1.045       .  S
C1212      C1213   1.392       .  A
C1213      H1219   1.082       .  S
N1214      C1215   1.355       .  A
N1214      H1222   1.045       .  S
C1215      C1216   1.398       .  A
C1216      H1220   1.082       .  S
C1223      N1229   1.344       .  A
C1223      C1228   1.383       .  A
C1223      C1224   1.404       .  A
C1224      C1225   1.404       .  A
C1224      H1235   1.082       .  S
C1225      C1234   1.379       .  A
C1225      C1226   1.385       .  A
C1226      N1232   1.343       .  A
C1226      C1227   1.402       .  A
C1227      C1228   1.402       .  A
C1227      H1236   1.082       .  S
C1228      C1231   1.376       .  A
N1229      C1230   1.358       .  A
N1229      H1239   1.045       .  S
C1230      C1231   1.398       .  A
C1231      H1237   1.082       .  S
N1232      C1233   1.354       .  A
N1232      H1240   1.045       .  S
C1233      C1234   1.396       .  A
C1234      H1238   1.082       .  S
C1241      N1247   1.347       .  A
C1241      C1246   1.385       .  A
C1241      C1242   1.405       .  A
C1242      C1243   1.406       .  A
C1242      H1253   1.082       .  S
C1243      C1252   1.378       .  A
C1243      C1244   1.384       .  A
C1244      N1250   1.342       .  A
C1244      C1245   1.400       .  A
C1245      C1246   1.400       .  A
C1245      H1254   1.082       .  S
C1246      C1249   1.373       .  A
N1247      C1248   1.356       .  A
N1247      H1257   1.045       .  S
C1248      C1249   1.393       .  A
C1249      H1255   1.083       .  S
N1250      C1251   1.356       .  A
N1250      H1258   1.045       .  S
C1251      C1252   1.400       .  A
C1252      H1256   1.082       .  S
C1259      N1265   1.346       .  A
C1259      C1264   1.385       .  A
C1259      C1260   1.405   1_556  A
C1260      C1261   1.406       .  A
C1260      H1271   1.082       .  S
C1261      C1270   1.380       .  A
C1261      C1262   1.385       .  A
C1262      N1268   1.341       .  A
C1262      C1263   1.399       .  A
C1263      C1264   1.399   1_554  A
C1263      H1272   1.082       .  S
C1264      C1267   1.372       .  A
N1265      C1266   1.355       .  A
N1265      H1275   1.044       .  S
C1266      C1267   1.390       .  A
C1267      H1273   1.082       .  S
N1268      C1269   1.354       .  A
N1268      H1276   1.045       .  S
C1269      C1270   1.398       .  A
C1270      H1274   1.082       .  S
C1277      N1283   1.346       .  A
C1277      C1282   1.385   1_556  A
C1277      C1278   1.405   1_556  A
C1278      C1279   1.405       .  A
C1278      H1289   1.082       .  S
C1279      C1288   1.379       .  A
C1279      C1280   1.385       .  A
C1280      N1286   1.343       .  A
C1280      C1281   1.401       .  A
C1281      C1282   1.401       .  A
C1281      H1290   1.082       .  S
C1282      C1285   1.374   1_554  A
N1283      C1284   1.356       .  A
N1283      H1293   1.044       .  S
C1284      C1285   1.393       .  A
C1285      H1291   1.082       .  S
N1286      C1287   1.354       .  A
N1286      H1294   1.045       .  S
C1287      C1288   1.396       .  A
C1288      H1292   1.082       .  S
C1295      N1301   1.344       .  A
C1295      C1300   1.386       .  A
C1295      C1296   1.402       .  A
C1296      C1297   1.403       .  A
C1296      H1307   1.082       .  S
C1297      C1306   1.376       .  A
C1297      C1298   1.385       .  A
C1298      N1304   1.345       .  A
C1298      C1299   1.403       .  A
C1299      C1300   1.403       .  A
C1299      H1308   1.082       .  S
C1300      C1303   1.376       .  A
N1301      C1302   1.353       .  A
N1301      H1311   1.044       .  S
C1302      C1303   1.393       .  A
C1303      H1309   1.082       .  S
N1304      C1305   1.356       .  A
N1304      H1312   1.045       .  S
C1305      C1306   1.395       .  A
C1306      H1310   1.082       .  S
C1313      N1319   1.341       .  A
C1313      C1318   1.385       .  A
C1313      C1314   1.401       .  A
C1314      C1315   1.400       .  A
C1314      H1325   1.082       .  S
C1315      C1324   1.376       .  A
C1315      C1316   1.385       .  A
C1316      N1322   1.346       .  A
C1316      C1317   1.406       .  A
C1317      C1318   1.405       .  A
C1317      H1326   1.082       .  S
C1318      C1321   1.382       .  A
N1319      C1320   1.353       .  A
N1319      H1329   1.045       .  S
C1320      C1321   1.395       .  A
C1321      H1327   1.082       .  S
N1322      C1323   1.356       .  A
N1322      H1330   1.045       .  S
C1323      C1324   1.394       .  A
C1324      H1328   1.083       .  S
C1331      N1337   1.346       .  A
C1331      C1336   1.385       .  A
C1331      C1332   1.406       .  A
C1332      C1333   1.405       .  A
C1332      H1343   1.082       .  S
C1333      C1342   1.381       .  A
C1333      C1334   1.385       .  A
C1334      N1340   1.341       .  A
C1334      C1335   1.400       .  A
C1335      C1336   1.400       .  A
C1335      H1344   1.082       .  S
C1336      C1339   1.373       .  A
N1337      C1338   1.357       .  A
N1337      H1347   1.045       .  S
C1338      C1339   1.394       .  A
C1339      H1345   1.083       .  S
N1340      C1341   1.353       .  A
N1340      H1348   1.045       .  S
C1341      C1342   1.395       .  A
C1342      H1346   1.082       .  S
C1349      N1355   1.347       .  A
C1349      C1354   1.385       .  A
C1349      C1350   1.405       .  A
C1350      C1351   1.405       .  A
C1350      H1361   1.082       .  S
C1351      C1360   1.378       .  A
C1351      C1352   1.384       .  A
C1352      N1358   1.345   1_554  A
C1352      C1353   1.403       .  A
C1353      C1354   1.403       .  A
C1353      H1362   1.082       .  S
C1354      C1357   1.376       .  A
N1355      C1356   1.357       .  A
N1355      H1365   1.045       .  S
C1356      C1357   1.395       .  A
C1357      H1363   1.082       .  S
N1358      C1359   1.356       .  A
N1358      H1366   1.045       .  S
C1359      C1360   1.398   1_556  A
C1360      H1364   1.082       .  S
C1367      N1373   1.347       .  A
C1367      C1372   1.383   1_556  A
C1367      C1368   1.408       .  A
C1368      C1369   1.408   1_556  A
C1368      H1379   1.082       .  S
C1369      C1378   1.384       .  A
C1369      C1370   1.384       .  A
C1370      N1376   1.343       .  A
C1370      C1371   1.402       .  A
C1371      C1372   1.401       .  A
C1371      H1380   1.082       .  S
C1372      C1375   1.375       .  A
N1373      C1374   1.360       .  A
N1373      H1383   1.044       .  S
C1374      C1375   1.397   1_556  A
C1375      H1381   1.082       .  S
N1376      C1377   1.355       .  A
N1376      H1384   1.045       .  S
C1377      C1378   1.399       .  A
C1378      H1382   1.082       .  S
C1385      N1391   1.339       .  A
C1385      C1390   1.384       .  A
C1385      C1386   1.399       .  A
C1386      C1387   1.397       .  A
C1386      H1397   1.082       .  S
C1387      C1396   1.373       .  A
C1387      C1388   1.385       .  A
C1388      N1394   1.342       .  A
C1388      C1389   1.403       .  A
C1389      C1390   1.402       .  A
C1389      H1398   1.082       .  S
C1390      C1393   1.377       .  A
N1391      C1392   1.355       .  A
N1391      H1401   1.045       .  S
C1392      C1393   1.397       .  A
C1393      H1399   1.082       .  S
N1394      C1395   1.355       .  A
N1394      H1402   1.045       .  S
C1395      C1396   1.391       .  A
C1396      H1400   1.083       .  S
C1403      N1409   1.344       .  A
C1403      C1408   1.385       .  A
C1403      C1404   1.405       .  A
C1404      C1405   1.403       .  A
C1404      H1415   1.082       .  S
C1405      C1414   1.380       .  A
C1405      C1406   1.385       .  A
C1406      N1412   1.342       .  A
C1406      C1407   1.402       .  A
C1407      C1408   1.402       .  A
C1407      H1416   1.082       .  S
C1408      C1411   1.377       .  A
N1409      C1410   1.356       .  A
N1409      H1419   1.045       .  S
C1410      C1411   1.395       .  A
C1411      H1417   1.082       .  S
N1412      C1413   1.353       .  A
N1412      H1420   1.045       .  S
C1413      C1414   1.394       .  A
C1414      H1418   1.082       .  S
C1421      N1427   1.340       .  A
C1421      C1426   1.385       .  A
C1421      C1422   1.399       .  A
C1422      C1423   1.398       .  A
C1422      H1433   1.082       .  S
C1423      C1432   1.373       .  A
C1423      C1424   1.385       .  A
C1424      N1430   1.345       .  A
C1424      C1425   1.405       .  A
C1425      C1426   1.405       .  A
C1425      H1434   1.082       .  S
C1426      C1429   1.380       .  A
N1427      C1428   1.353       .  A
N1427      H1437   1.045       .  S
C1428      C1429   1.398       .  A
C1429      H1435   1.082       .  S
N1430      C1431   1.355       .  A
N1430      H1438   1.044       .  S
C1431      C1432   1.391       .  A
C1432      H1436   1.082       .  S
C1439      N1445   1.342       .  A
C1439      C1444   1.383       .  A
C1439      C1440   1.404       .  A
C1440      C1441   1.402       .  A
C1440      H1451   1.082       .  S
C1441      C1450   1.380       .  A
C1441      C1442   1.384       .  A
C1442      N1448   1.343       .  A
C1442      C1443   1.404       .  A
C1443      C1444   1.403       .  A
C1443      H1452   1.082       .  S
C1444      C1447   1.379       .  A
N1445      C1446   1.358       .  A
N1445      H1455   1.045       .  S
C1446      C1447   1.398       .  A
C1447      H1453   1.082       .  S
N1448      C1449   1.356       .  A
N1448      H1456   1.045       .  S
C1449      C1450   1.395       .  A
C1450      H1454   1.082       .  S
