geometry optimzed in LAMMPS
_audit_creation_date              2020-11-30 
_audit_creation_method            'lammps2cif' 
_symmetry_space_group_name_H-M    'P1' 
_symmetry_Int_Tables_number       1 
_symmetry_cell_setting            triclinic 
loop_ 
_symmetry_equiv_pos_as_xyz 
  x,y,z 
_cell_length_a                    34.15461268 
_cell_length_b                    34.072948507391416 
_cell_length_c                    26.174357749347962 
_cell_angle_alpha                 89.72205154656811 
_cell_angle_beta                  90.62948567167912 
_cell_angle_gamma                 89.92946754851953 
loop_ 
_atom_site_label 
_atom_site_type_symbol 
_atom_site_fract_x 
_atom_site_fract_y 
_atom_site_fract_z 
_atom_site_charge 
O1          O  0.42058019  0.81461077  0.48714177    -0.70800
O2          O  0.40801118  0.91989726  0.98713063    -0.71100
O3          O  0.41143926  0.86300207  0.05858390    -0.70900
O4          O  0.41579870  0.87089035  0.41458728    -0.70900
O5          O  0.35262459  0.86301528  0.41341503    -0.70900
O6          O  0.34782087  0.86102809  0.05872820    -0.70900
O7          O  0.34682858  0.91941765  0.48310392    -0.70900
O8          O  0.34987969  0.80543073  0.98643061    -0.71000
V9          V  0.40956915  0.86409033  0.98610038     1.35200
V10         V  0.34848003  0.86099015  0.98604688     1.35200
C11         C  0.38253275  0.78812998  0.98432218     0.78400
C12         C  0.37514843  0.93700173  0.98590653     0.78400
C13         C  0.37988891  0.86203929  0.08330869     0.78300
C14         C  0.38422108  0.86729967  0.38940372     0.78300
O15         O  0.41811509  0.81227694  0.23839091    -0.70800
O16         O  0.40972880  0.92393996  0.23350869    -0.71100
O17         O  0.41525389  0.86942168  0.30852713    -0.70900
O18         O  0.41272683  0.86645733  0.16340462    -0.70900
O19         O  0.34940354  0.86027212  0.16454022    -0.70900
O20         O  0.35168917  0.86623284  0.30927614    -0.70900
O21         O  0.34630447  0.91897013  0.23262032    -0.70900
O22         O  0.35475416  0.80786918  0.24233024    -0.71000
V23         V  0.41274906  0.86797440  0.23592963     1.35200
V24         V  0.35179604  0.86346630  0.23703294     1.35200
C25         C  0.38786002  0.79119729  0.24277071     0.78400
C26         C  0.37648689  0.94042944  0.23200558     0.78400
C27         C  0.38382369  0.86783607  0.33350313     0.78300
C28         C  0.38066765  0.86276581  0.13933192     0.78300
O29         O  0.32284870  0.10856779  0.47582274    -0.70800
O30         O  0.33881659  0.99590590  0.98392150    -0.71100
O31         O  0.33420042  0.05456806  0.05116772    -0.70900
O32         O  0.33153836  0.05296445  0.40536589    -0.70900
O33         O  0.39450678  0.06223051  0.40757743    -0.70900
O34         O  0.39770887  0.05892260  0.05129180    -0.70900
O35         O  0.40106842  0.00664395  0.48073561    -0.70900
O36         O  0.39162707  0.11241982  0.97558069    -0.71000
V37         V  0.33175811  0.05365489  0.47794205     1.35200
V38         V  0.39236629  0.06183201  0.47998273     1.35200
C39         C  0.35163905  0.13173630  0.47633043     0.78400
C40         C  0.37186749  0.98387023  0.48131323     0.78400
C41         C  0.36609809  0.05734879  0.07582903     0.78300
C42         C  0.36334317  0.05770644  0.38186947     0.78300
O43         O  0.32811652  0.11065494  0.22580399    -0.70800
O44         O  0.33916969  0.99947168  0.22962832    -0.71100
O45         O  0.33266082  0.05584185  0.30025092    -0.70900
O46         O  0.33439950  0.05419228  0.15553113    -0.70900
O47         O  0.39755707  0.06206067  0.15720307    -0.70900
O48         O  0.39613552  0.06049080  0.30245776    -0.70900
O49         O  0.40249297  0.00554569  0.22954817    -0.70900
O50         O  0.39132947  0.11699605  0.23080116    -0.71000
V51         V  0.33485207  0.05517658  0.22784929     1.35200
V52         V  0.39568387  0.06117104  0.22987176     1.35200
C53         C  0.35776624  0.13276969  0.22841966     0.78400
C54         C  0.37265822  0.98354986  0.23015001     0.78400
C55         C  0.36408776  0.05802786  0.32596048     0.78300
C56         C  0.36612538  0.05806159  0.13175472     0.78300
O57         O  0.84120644  0.52824020  0.47967419    -0.70800
O58         O  0.94646541  0.53339153  0.97965516    -0.71100
O59         O  0.89028290  0.52743801  0.05143291    -0.70900
O60         O  0.89664824  0.53205238  0.40734418    -0.70900
O61         O  0.89236775  0.59571539  0.40470508    -0.70900
O62         O  0.88623150  0.59111538  0.05180987    -0.70900
O63         O  0.94671850  0.60279893  0.47898721    -0.70900
O64         O  0.82931106  0.58660848  0.98166452    -0.71000
V65         V  0.89058888  0.52946092  0.97877207     1.35200
V66         V  0.88498663  0.59046215  0.97944896     1.35200
C67         C  0.81307926  0.55320281  0.98162623     0.78400
C68         C  0.96231582  0.56696999  0.97790625     0.78400
C69         C  0.88815004  0.55910791  0.07623234     0.78300
C70         C  0.89496311  0.56336580  0.38153593     0.78300
O71         O  0.83814731  0.52539986  0.23229232    -0.70800
O72         O  0.94970641  0.53187973  0.22772463    -0.71100
O73         O  0.89579512  0.52981225  0.30244616    -0.70900
O74         O  0.89196347  0.52759709  0.15737813    -0.70900
O75         O  0.88560422  0.59109660  0.15612508    -0.70900
O76         O  0.89404688  0.59360943  0.30032152    -0.70900
O77         O  0.94502893  0.59542787  0.22321848    -0.70900
O78         O  0.83448852  0.58904058  0.23444517    -0.71000
V79         V  0.89380579  0.52984317  0.22991006     1.35200
V80         V  0.88989068  0.59100877  0.22837157     1.35200
C81         C  0.81750030  0.55610378  0.23607159     0.78400
C82         C  0.96624104  0.56498646  0.22430383     0.78400
C83         C  0.89524023  0.56216810  0.32588824     0.78300
C84         C  0.88838031  0.55914173  0.13214981     0.78300
O85         O  0.14377572  0.60629312  0.46782217    -0.70800
O86         O  0.02036201  0.60541638  0.97209130    -0.71100
O87         O  0.07624513  0.61188216  0.04415888    -0.70900
O88         O  0.08395270  0.60817911  0.39972435    -0.70900
O89         O  0.08595877  0.54441806  0.39932240    -0.70900
O90         O  0.08689075  0.54895954  0.04402953    -0.70900
O91         O  0.03129289  0.54385087  0.47287502    -0.70900
O92         O  0.13858918  0.55548809  0.96643656    -0.71000
V93         V  0.08714732  0.60631526  0.47181428     1.35200
V94         V  0.08667723  0.54508776  0.47224830     1.35200
C95         C  0.16205297  0.57365555  0.46897699     0.78400
C96         C  0.01189075  0.57527354  0.47560707     0.78400
C97         C  0.08192060  0.58036682  0.06871005     0.78300
C98         C  0.08451816  0.57662195  0.37489106     0.78300
O99         O  0.13296692  0.61965447  0.22017520    -0.70800
O100        O  0.02366255  0.60311891  0.22355518    -0.71100
O101        O  0.08015464  0.60989635  0.29486291    -0.70900
O102        O  0.07671287  0.61144885  0.14944545    -0.70900
O103        O  0.08797223  0.54863441  0.14906374    -0.70900
O104        O  0.08730470  0.54649668  0.29373373    -0.70900
O105        O  0.03203727  0.53993540  0.22051722    -0.70900
O106        O  0.14285238  0.55664699  0.22288991    -0.71000
V107        V  0.07851987  0.60975960  0.22206913     1.35200
V108        V  0.08740051  0.54911380  0.22145783     1.35200
C109        C  0.15656231  0.59123594  0.22138543     0.78400
C110        C  0.00906551  0.56914665  0.22251614     0.78400
C111        C  0.08387766  0.57771737  0.31892696     0.78300
C112        C  0.08230484  0.58019781  0.12464108     0.78300
O113        O  0.58539923  0.11124326  0.52889731    -0.70800
O114        O  0.57891522  0.00236831  0.02822557    -0.71100
O115        O  0.57202085  0.05822828  0.10027656    -0.70900
O116        O  0.58343970  0.05551130  0.45586486    -0.70900
O117        O  0.64709124  0.05527850  0.45593048    -0.70900
O118        O  0.63539644  0.06391660  0.10082212    -0.70900
O119        O  0.64688052  0.99826469  0.52647611    -0.70900
O120        O  0.62815295  0.12158857  0.03022148    -0.71000
V121        V  0.57334875  0.05808765  0.02738198     1.35200
V122        V  0.63398330  0.06551242  0.02852366     1.35200
C123        C  0.59418761  0.13664402  0.02703056     0.78400
C124        C  0.61265741  0.98704448  0.02645144     0.78400
C125        C  0.60390734  0.06038331  0.12521057     0.78300
C126        C  0.61489024  0.05516556  0.43128794     0.78300
O127        O  0.57124543  0.10781247  0.27968276    -0.70800
O128        O  0.58244574  0.99746974  0.27934332    -0.71100
O129        O  0.58036851  0.05275791  0.35230363    -0.70900
O130        O  0.57442033  0.05317693  0.20698946    -0.70900
O131        O  0.63738341  0.06215798  0.20473508    -0.70900
O132        O  0.64386429  0.05616420  0.34924808    -0.70900
O133        O  0.64559050  0.00325986  0.27303905    -0.70900
O134        O  0.63456503  0.11447803  0.28151957    -0.71000
V135        V  0.57837989  0.05283253  0.27966082     1.35200
V136        V  0.63916982  0.05885252  0.27704354     1.35200
C137        C  0.60077982  0.12985197  0.28165216     0.78400
C138        C  0.61559444  0.98150047  0.27525201     0.78400
C139        C  0.61312010  0.05459437  0.37537861     0.78300
C140        C  0.60508133  0.05855656  0.18122818     0.78300
O141        O  0.65133672  0.80678853  0.52384999    -0.70800
O142        O  0.65037743  0.92745787  0.02099092    -0.71100
O143        O  0.65557895  0.87084245  0.09295975    -0.70900
O144        O  0.65071354  0.86122346  0.44900775    -0.70900
O145        O  0.58707174  0.86239638  0.44698562    -0.70900
O146        O  0.59243141  0.86291249  0.09218987    -0.70900
O147        O  0.58466035  0.91680146  0.52174460    -0.70900
O148        O  0.59624438  0.81050785  0.01469449    -0.71000
V149        V  0.64883835  0.86264992  0.52129098     1.35200
V150        V  0.58772043  0.86110943  0.51976759     1.35200
C151        C  0.62002742  0.78712987  0.52016317     0.78400
C152        C  0.61589665  0.93656580  0.52178205     0.78400
C153        C  0.62408242  0.86653210  0.11720669     0.78300
C154        C  0.61921064  0.86175222  0.42336057     0.78300
O155        O  0.65704666  0.81011827  0.27195581    -0.70800
O156        O  0.65129454  0.92147892  0.27205655    -0.71100
O157        O  0.65248578  0.86518522  0.34434147    -0.70900
O158        O  0.65537129  0.86620918  0.19905135    -0.70900
O159        O  0.59173546  0.86505133  0.19653293    -0.70900
O160        O  0.58911196  0.85950274  0.34118259    -0.70900
O161        O  0.58775296  0.91787096  0.27227747    -0.70900
O162        O  0.59366031  0.80664300  0.26484207    -0.71000
V163        V  0.65284638  0.86566212  0.27173775     1.35200
V164        V  0.59180698  0.86235466  0.26880029     1.35200
C165        C  0.62649462  0.78952598  0.26758046     0.78400
C166        C  0.61847595  0.93857812  0.27306573     0.78400
C167        C  0.62026931  0.86203808  0.36738877     0.78300
C168        C  0.62385887  0.86591826  0.17317054     0.78300
N169        N  0.40350308  0.38861458  0.49665113    -0.35700
N170        N  0.31974810  0.38647948  0.49806625    -0.56200
N171        N  0.32155343  0.30037289  0.48382810    -0.35700
N172        N  0.40468943  0.30377394  0.48517434    -0.56200
C173        C  0.39391851  0.42326687  0.51826805     0.27900
C174        C  0.43780722  0.37677368  0.51828141     0.27900
C175        C  0.28505107  0.30635810  0.50147342     0.27900
C176        C  0.33124557  0.26253366  0.49461894     0.27900
C177        C  0.32404272  0.42618909  0.49789378     0.36500
C178        C  0.28097518  0.37903400  0.49177464     0.36500
C179        C  0.44230371  0.31317725  0.47669219     0.36500
C180        C  0.39971639  0.26691071  0.46813187     0.36500
C181        C  0.42183780  0.43232875  0.55537149    -0.21000
C182        C  0.44939704  0.40309402  0.55531609    -0.21000
C183        C  0.27126642  0.27214896  0.52377795    -0.21000
C184        C  0.30069377  0.24470664  0.52036754    -0.21000
C185        C  0.28737765  0.44349684  0.49498484    -0.22000
C186        C  0.26075678  0.41417048  0.48731516    -0.22000
C187        C  0.46100740  0.28295185  0.45148328    -0.22000
C188        C  0.43400571  0.25325222  0.44653554    -0.22000
C189        C  0.36059206  0.44613928  0.50419026    -0.17400
C190        C  0.46055293  0.34486169  0.50143525    -0.17400
C191        C  0.36677671  0.24416358  0.48025887    -0.17400
C192        C  0.26323639  0.34137339  0.49625789    -0.17400
H193        H  0.42235091  0.45610041  0.58194712     0.15500
H194        H  0.47526285  0.40158819  0.57949575     0.15500
H195        H  0.24320123  0.26772012  0.54172617     0.15500
H196        H  0.29961457  0.21526142  0.53586825     0.15500
H197        H  0.27954247  0.47384421  0.50047901     0.13800
H198        H  0.22974155  0.41890440  0.48167790     0.13800
H199        H  0.49160126  0.28132416  0.44145727     0.13800
H200        H  0.43954276  0.22435662  0.43120002     0.13800
H201        H  0.38959302  0.37605403  0.46501897     0.27100
H202        H  0.33723615  0.32003433  0.46132021     0.27100
N203        N  0.41137917  0.38362496  0.29273182    -0.35700
N204        N  0.32416488  0.37978835  0.29274418    -0.56200
N205        N  0.32692353  0.29715319  0.27348283    -0.35700
N206        N  0.41343086  0.30001991  0.28375097    -0.56200
C207        C  0.40024387  0.41967440  0.30776602     0.27900
C208        C  0.44719188  0.37601783  0.31385644     0.27900
C209        C  0.28875563  0.30027076  0.28719620     0.27900
C210        C  0.33665211  0.25857902  0.27431430     0.27900
C211        C  0.32949208  0.41864447  0.30022258     0.36500
C212        C  0.28559216  0.37256843  0.29974066     0.36500
C213        C  0.45128148  0.31067918  0.27652910     0.36500
C214        C  0.40773951  0.26647368  0.25724763     0.36500
C215        C  0.42865267  0.43541894  0.33966718    -0.21000
C216        C  0.45817864  0.40787427  0.34370671    -0.21000
C217        C  0.27403283  0.26298162  0.29618566    -0.21000
C218        C  0.30429139  0.23690973  0.28913813    -0.21000
C219        C  0.29483147  0.43547916  0.31647404    -0.22000
C220        C  0.26711804  0.40644188  0.31610686    -0.22000
C221        C  0.46923758  0.28445646  0.24397045    -0.22000
C222        C  0.44190890  0.25610925  0.23250685    -0.22000
C223        C  0.36531919  0.43870925  0.29189503    -0.17400
C224        C  0.47002858  0.34193586  0.30305487    -0.17400
C225        C  0.37362050  0.24291700  0.25984835    -0.17400
C226        C  0.26695908  0.33570210  0.29222501    -0.17400
H227        H  0.42806856  0.46373659  0.35822917     0.15500
H228        H  0.48461739  0.41183728  0.36570189     0.15500
H229        H  0.24495262  0.25501414  0.30832125     0.15500
H230        H  0.30242848  0.20558511  0.29532067     0.15500
H231        H  0.28969017  0.46562571  0.32716130     0.13800
H232        H  0.23694971  0.41004201  0.32732657     0.13800
H233        H  0.49919550  0.28514257  0.23095145     0.13800
H234        H  0.44672089  0.23056381  0.20896826     0.13800
H235        H  0.39666516  0.36733248  0.26492545     0.27100
H236        H  0.34473236  0.31940309  0.25947163     0.27100
N237        N  0.42314142  0.53173431  0.50545649    -0.35700
N238        N  0.40903479  0.62919340  0.53853104    -0.56200
N239        N  0.32917527  0.63396405  0.49805664    -0.35700
N240        N  0.32746242  0.55050454  0.48349001    -0.56200
C241        C  0.43983973  0.55263946  0.54370991     0.27900
C242        C  0.39295803  0.51146989  0.52623511     0.27900
C243        C  0.33323888  0.67014088  0.51851531     0.27900
C244        C  0.29050362  0.62863912  0.48770126     0.27900
C245        C  0.44735916  0.62189356  0.54790839     0.36500
C246        C  0.40412805  0.66812670  0.54375430     0.36500
C247        C  0.33871425  0.51443360  0.46814297     0.36500
C248        C  0.29617571  0.56113094  0.45452422     0.36500
C249        C  0.41886544  0.54672346  0.58829889    -0.21000
C250        C  0.38922415  0.52070557  0.57726218    -0.21000
C251        C  0.29680686  0.68816244  0.52055366    -0.21000
C252        C  0.26989154  0.66189124  0.50176864    -0.21000
C253        C  0.46635180  0.65567777  0.56339552    -0.22000
C254        C  0.43884132  0.68514095  0.56081496    -0.22000
C255        C  0.31637238  0.50324658  0.42620682    -0.22000
C256        C  0.28838854  0.53230529  0.41862839    -0.22000
C257        C  0.46454216  0.58538974  0.53663055    -0.17400
C258        C  0.36452720  0.49081557  0.49803972    -0.17400
C259        C  0.27368729  0.59543307  0.46349644    -0.17400
C260        C  0.36911496  0.68854090  0.53168924    -0.17400
H261        H  0.42323567  0.56186074  0.62413154     0.15500
H262        H  0.36641541  0.51113698  0.60280939     0.15500
H263        H  0.28996101  0.71722306  0.53427449     0.15500
H264        H  0.23873099  0.66715777  0.49831916     0.15500
H265        H  0.49692579  0.65893662  0.57380458     0.13800
H266        H  0.44410928  0.71571189  0.56945888     0.13800
H267        H  0.31832098  0.47569081  0.40621632     0.13800
H268        H  0.26493648  0.53210506  0.39048142     0.13800
H269        H  0.43001450  0.53342400  0.46670788     0.27100
H270        H  0.35201457  0.61585667  0.48671704     0.27100
N271        N  0.40861804  0.53946884  0.27842132    -0.35700
N272        N  0.40754974  0.62486099  0.27280633    -0.56200
N273        N  0.32373745  0.62478232  0.25591155    -0.35700
N274        N  0.32474958  0.53930824  0.26290923    -0.56200
C275        C  0.44439295  0.54812169  0.25986837     0.27900
C276        C  0.40155477  0.50142501  0.26758362     0.27900
C277        C  0.32864606  0.66273499  0.26998533     0.27900
C278        C  0.28493914  0.61654206  0.25817884     0.27900
C279        C  0.44517264  0.61727166  0.28597468     0.36500
C280        C  0.40086942  0.66290223  0.28385673     0.36500
C281        C  0.33272887  0.50086982  0.25637997     0.36500
C282        C  0.29012635  0.54577146  0.23908578     0.36500
C283        C  0.45930338  0.51557347  0.23485024    -0.21000
C284        C  0.43228378  0.48593598  0.24008913    -0.21000
C285        C  0.29225491  0.67888976  0.28043935    -0.21000
C286        C  0.26492524  0.64964860  0.27394293    -0.21000
C287        C  0.46193152  0.65005316  0.30837868    -0.22000
C288        C  0.43400427  0.67914878  0.30643240    -0.22000
C289        C  0.30468349  0.48359295  0.22518841    -0.22000
C290        C  0.27708359  0.51188501  0.21526753    -0.22000
C291        C  0.46531529  0.58301180  0.27081433    -0.17400
C292        C  0.36601043  0.48200478  0.27712424    -0.17400
C293        C  0.26765786  0.57997538  0.24507142    -0.17400
C294        C  0.36497478  0.68286792  0.27492043    -0.17400
H295        H  0.48709026  0.51318105  0.21563418     0.15500
H296        H  0.43440763  0.45678691  0.22410256     0.15500
H297        H  0.28567848  0.70812088  0.29367410     0.15500
H298        H  0.23396764  0.65260240  0.28117583     0.15500
H299        H  0.49156227  0.65309815  0.32290446     0.13800
H300        H  0.43756886  0.70869383  0.32070526     0.13800
H301        H  0.30400411  0.45368519  0.21147867     0.13800
H302        H  0.25023181  0.50793813  0.19355090     0.13800
H303        H  0.39135008  0.55713061  0.30164064     0.27100
H304        H  0.34507868  0.60624751  0.24138739     0.27100
N305        N  0.56284499  0.38447681  0.51986455    -0.35700
N306        N  0.64706741  0.38093011  0.52707372    -0.56200
N307        N  0.64420672  0.29613213  0.53400324    -0.35700
N308        N  0.55956174  0.30060786  0.52440466    -0.56200
C309        C  0.57365419  0.42042075  0.50341860     0.27900
C310        C  0.52675226  0.37736774  0.50044150     0.27900
C311        C  0.68154898  0.30290269  0.51927750     0.27900
C312        C  0.63429181  0.25954858  0.51843122     0.27900
C313        C  0.64039765  0.41883236  0.53891235     0.36500
C314        C  0.68384307  0.37256136  0.54297018     0.36500
C315        C  0.52179091  0.30998732  0.53291884     0.36500
C316        C  0.56430414  0.26304691  0.53963486     0.36500
C317        C  0.54423325  0.43635789  0.47281500    -0.21000
C318        C  0.51452374  0.40920126  0.47117935    -0.21000
C319        C  0.69557879  0.27027740  0.49388324    -0.21000
C320        C  0.66563685  0.24311762  0.49278883    -0.21000
C321        C  0.67262534  0.43443324  0.56415830    -0.22000
C322        C  0.70024988  0.40497437  0.56681591    -0.22000
C323        C  0.50270610  0.27867113  0.55570080    -0.22000
C324        C  0.52960379  0.24864022  0.55933605    -0.22000
C325        C  0.60784183  0.44011054  0.51991697    -0.17400
C326        C  0.50387285  0.34410474  0.51246315    -0.17400
C327        C  0.59802567  0.24079291  0.52905905    -0.17400
C328        C  0.70328007  0.33737669  0.53014541    -0.17400
H329        H  0.54378018  0.46488913  0.45451045     0.15500
H330        H  0.48661855  0.41307106  0.45206969     0.15500
H331        H  0.72416469  0.26660811  0.47712273     0.15500
H332        H  0.66686586  0.21472726  0.47456127     0.15500
H333        H  0.67635142  0.46423656  0.57745964     0.13800
H334        H  0.72934039  0.40747662  0.58324220     0.13800
H335        H  0.47216890  0.27697616  0.56610220     0.13800
H336        H  0.52395621  0.21929985  0.57343489     0.13800
H337        H  0.57727035  0.36793880  0.54790164     0.27100
H338        H  0.62760475  0.31409493  0.55758988     0.27100
N339        N  0.54926764  0.39673771  0.29443584    -0.35700
N340        N  0.56994477  0.29538048  0.31779639    -0.56200
N341        N  0.64961268  0.29697359  0.27951403    -0.35700
N342        N  0.64612792  0.38124169  0.26942182    -0.56200
C343        C  0.53788271  0.37010667  0.32965152     0.27900
C344        C  0.57993862  0.41656721  0.31527185     0.27900
C345        C  0.64802632  0.25983757  0.29825288     0.27900
C346        C  0.68781377  0.30513998  0.27013481     0.27900
C347        C  0.53133778  0.30075668  0.32657030     0.36500
C348        C  0.57691697  0.25656649  0.32094358     0.36500
C349        C  0.63464472  0.41823780  0.25798772     0.36500
C350        C  0.67877982  0.37419526  0.24219656     0.36500
C351        C  0.56209426  0.37269291  0.37254031    -0.21000
C352        C  0.58830038  0.40252523  0.36372074    -0.21000
C353        C  0.68554603  0.24412238  0.29977346    -0.21000
C354        C  0.71052901  0.27266926  0.28267461    -0.21000
C355        C  0.51389560  0.26529783  0.33843780    -0.22000
C356        C  0.54286345  0.23725108  0.33523317    -0.22000
C357        C  0.65874578  0.43400989  0.22085573    -0.22000
C358        C  0.68713327  0.40625486  0.21144386    -0.22000
C359        C  0.51306251  0.33778638  0.31983864    -0.17400
C360        C  0.60659008  0.43880727  0.28700059    -0.17400
C361        C  0.70263963  0.34048759  0.24881678    -0.17400
C362        C  0.61366717  0.23873450  0.31126622    -0.17400
H363        H  0.56224223  0.35324042  0.40535873     0.15500
H364        H  0.61291646  0.41049960  0.38791817     0.15500
H365        H  0.69443315  0.21509470  0.31211860     0.15500
H366        H  0.74193704  0.26948586  0.27980911     0.15500
H367        H  0.48358115  0.26005973  0.34780563     0.13800
H368        H  0.53899644  0.20620052  0.34225966     0.13800
H369        H  0.65720582  0.46310620  0.20418591     0.13800
H370        H  0.71150846  0.40956477  0.18571697     0.13800
H371        H  0.53927983  0.39867576  0.25662522     0.27100
H372        H  0.62570665  0.31425611  0.26911855     0.27100
N373        N  0.56512568  0.54004005  0.51197581    -0.35700
N374        N  0.65140800  0.53937785  0.49255845    -0.56200
N375        N  0.64845179  0.62209851  0.47308983    -0.35700
N376        N  0.56379079  0.62235617  0.49791986    -0.56200
C377        C  0.57837879  0.50651773  0.53369998     0.27900
C378        C  0.53083219  0.54957154  0.53461589     0.27900
C379        C  0.68779207  0.61617643  0.47294759     0.27900
C380        C  0.64198322  0.66097701  0.47961962     0.27900
C381        C  0.64119396  0.50129844  0.48791365     0.36500
C382        C  0.68569077  0.54390658  0.46771772     0.36500
C383        C  0.52523909  0.61350062  0.49282082     0.36500
C384        C  0.56920913  0.65784102  0.47586814     0.36500
C385        C  0.55250238  0.49457838  0.57119791    -0.21000
C386        C  0.52260976  0.52189913  0.57205700    -0.21000
C387        C  0.70656674  0.65199195  0.47796228    -0.21000
C388        C  0.67789490  0.68014803  0.48127361    -0.21000
C389        C  0.66872126  0.48161790  0.45894916    -0.22000
C390        C  0.69710689  0.50860108  0.44652499    -0.22000
C391        C  0.50641079  0.64288198  0.46508669    -0.22000
C392        C  0.53396607  0.67151624  0.45581892    -0.22000
C393        C  0.60971078  0.48384613  0.51447900    -0.17400
C394        C  0.50709489  0.58210445  0.51987156    -0.17400
C395        C  0.60450989  0.67950104  0.47954550    -0.17400
C396        C  0.70696268  0.57954763  0.46599522    -0.17400
H397        H  0.55452753  0.46838400  0.59465521     0.15500
H398        H  0.49798786  0.52117964  0.59759020     0.15500
H399        H  0.73770025  0.65772998  0.47844240     0.15500
H400        H  0.68358570  0.71129303  0.48260413     0.15500
H401        H  0.66874382  0.45091931  0.44854920     0.13800
H402        H  0.72290911  0.50295411  0.42408341     0.13800
H403        H  0.47567952  0.64446265  0.45475439     0.13800
H404        H  0.52851008  0.69916758  0.43655237     0.13800
H405        H  0.57652142  0.55282147  0.47901638     0.27100
H406        H  0.62701536  0.60134962  0.46464151     0.27100
N407        N  0.56677068  0.53969251  0.27466848    -0.35700
N408        N  0.56703460  0.62284473  0.25182421    -0.56200
N409        N  0.65182237  0.62384081  0.26175766    -0.35700
N410        N  0.65186970  0.53971145  0.28082616    -0.56200
C411        C  0.53089031  0.55169434  0.28964156     0.27900
C412        C  0.57427410  0.50531914  0.29885879     0.27900
C413        C  0.64550350  0.66107868  0.24496455     0.27900
C414        C  0.69075062  0.61648529  0.25789894     0.27900
C415        C  0.52909066  0.61416007  0.24247628     0.36500
C416        C  0.57323396  0.65916817  0.23304734     0.36500
C417        C  0.64554600  0.50197807  0.29462601     0.36500
C418        C  0.69075772  0.54619602  0.28641289     0.36500
C419        C  0.51639425  0.52564308  0.32560198    -0.21000
C420        C  0.54351094  0.49607636  0.33089455    -0.21000
C421        C  0.68082285  0.67759085  0.23070717    -0.21000
C422        C  0.70921198  0.64965665  0.23877655    -0.21000
C423        C  0.51161658  0.64412513  0.21440260    -0.22000
C424        C  0.53923878  0.67317900  0.20974566    -0.22000
C425        C  0.68021107  0.48495724  0.31155203    -0.15600
C426        C  0.70881912  0.51291858  0.30637184    -0.22000
C427        C  0.50940423  0.58294884  0.26700740    -0.17400
C428        C  0.60869117  0.48291909  0.29276737    -0.17400
C429        C  0.71042599  0.58093348  0.27105146    -0.17400
C430        C  0.60864859  0.68016020  0.23897152    -0.17400
H431        H  0.48872661  0.52729665  0.34525564     0.15500
H432        H  0.54106094  0.47170434  0.35713162     0.15500
H433        H  0.68556575  0.70628175  0.21399398     0.15500
H434        H  0.73991224  0.65334804  0.23025907     0.15500
H435        H  0.48153873  0.64592943  0.20116550     0.13800
H436        H  0.53449933  0.70110896  0.19092531     0.13800
H437        H  0.68435188  0.45562845  0.32674907     0.13800
H438        H  0.73939791  0.50907048  0.31639758     0.13800
H439        H  0.58331003  0.55163705  0.24515165     0.27100
H440        H  0.63116681  0.60563234  0.27828746     0.27100
O441        O  0.13449068  0.39122985  0.51802666    -0.70800
O442        O  0.03545063  0.39192134  0.00770447    -0.71100
O443        O  0.08709658  0.38893521  0.08490847    -0.70900
O444        O  0.08207632  0.39226545  0.43976578    -0.70900
O445        O  0.07813407  0.32857300  0.43950532    -0.70900
O446        O  0.08668698  0.32511555  0.08515248    -0.70900
O447        O  0.02295032  0.32872358  0.51117186    -0.70900
O448        O  0.14337731  0.32238208  0.01487000    -0.71000
V449        V  0.09079344  0.38782130  0.01283829     1.35200
V450        V  0.08792773  0.32658701  0.01251730     1.35200
C451        C  0.16348196  0.35322909  0.01986793     0.78400
C452        C  0.01520308  0.36093194  0.00866247     0.78400
C453        C  0.08585415  0.35704212  0.10956879     0.78300
C454        C  0.08016611  0.36051605  0.41505431     0.78300
O455        O  0.13751773  0.39007419  0.26145407    -0.70800
O456        O  0.02589412  0.39142549  0.26066236    -0.71100
O457        O  0.08210392  0.39186474  0.33383052    -0.70900
O458        O  0.08170359  0.38964579  0.18889472    -0.70900
O459        O  0.08404212  0.32588777  0.19087889    -0.70900
O460        O  0.07849969  0.32816784  0.33545781    -0.70900
O461        O  0.02509340  0.32770727  0.25889996    -0.70900
O462        O  0.13722135  0.32651265  0.26822105    -0.71000
V463        V  0.08174347  0.38950766  0.26130040     1.35200
V464        V  0.08117210  0.32827223  0.26326538     1.35200
C465        C  0.15643487  0.35825605  0.26571513     0.78400
C466        C  0.00638770  0.35987073  0.25898581     0.78400
C467        C  0.08023695  0.36029686  0.35921757     0.78300
C468        C  0.08368706  0.35744796  0.16533163     0.78300
O469        O  0.83058476  0.33235384  0.50718727    -0.70800
O470        O  0.95299646  0.33111009  0.00547639    -0.71100
O471        O  0.89634890  0.33255278  0.07609192    -0.70900
O472        O  0.88430032  0.33109533  0.43184009    -0.70900
O473        O  0.88682413  0.39482881  0.43108442    -0.70900
O474        O  0.89438711  0.39633525  0.07508901    -0.70900
O475        O  0.94315696  0.39395298  0.50378553    -0.70900
O476        O  0.84380006  0.39676220  0.99482585    -0.71000
V477        V  0.88634205  0.33262582  0.50469356     1.35200
V478        V  0.88746001  0.39390001  0.50358257     1.35200
C479        C  0.81215716  0.36458689  0.50650124     0.78400
C480        C  0.96146861  0.36165398  0.50452551     0.78400
C481        C  0.89401721  0.36454265  0.10018083     0.78300
C482        C  0.88543146  0.36293717  0.40674633     0.78300
O483        O  0.83058517  0.33491695  0.24834014    -0.70800
O484        O  0.94265613  0.32986654  0.25722024    -0.71100
O485        O  0.88391024  0.33161116  0.32555056    -0.70900
O486        O  0.88961298  0.33262254  0.18060829    -0.70900
O487        O  0.89024965  0.39640573  0.18080114    -0.70900
O488        O  0.88855216  0.39521136  0.32617264    -0.70900
O489        O  0.94508491  0.39354681  0.25527057    -0.70900
O490        O  0.83355926  0.39849548  0.25214327    -0.71000
V491        V  0.88667965  0.33347337  0.25295669     1.35200
V492        V  0.88926673  0.39465488  0.25352193     1.35200
C493        C  0.81298809  0.36771863  0.24961595     0.78400
C494        C  0.96296054  0.36100273  0.25710394     0.78400
C495        C  0.88579670  0.36320651  0.35056987     0.78300
C496        C  0.89108301  0.36459884  0.15608865     0.78300
C497        C  0.74544266  0.34157111  0.23577136    -0.15500
C498        C  0.76951648  0.37069553  0.25101981    -0.30700
H499        H  0.75840973  0.31552384  0.21917456     0.13500
H500        H  0.75715899  0.39690010  0.26800062     0.14100
C501        C  0.76887923  0.36607389  0.50893875    -0.15500
C502        C  0.74709385  0.33592225  0.52645568    -0.30700
H503        H  0.75478192  0.39319699  0.49690422     0.13500
H504        H  0.76598293  0.33517127  0.04529530     0.14100
C505        C  0.22275786  0.33338953  0.29236644    -0.15500
C506        C  0.19992537  0.35911961  0.26615156    -0.30700
H507        H  0.20861814  0.30964747  0.31279860     0.13500
H508        H  0.21359362  0.38300303  0.24532955     0.14100
C509        C  0.19604515  0.35993321  0.52356168    -0.15500
C510        C  0.21966373  0.33721492  0.49573843    -0.30700
H511        H  0.21915535  0.36778464  0.05800235     0.13500
H512        H  0.20687452  0.31456362  0.47168808     0.14100
C513        C  0.62956612  0.74652516  0.26704233    -0.15500
C514        C  0.60697611  0.72406024  0.23658424    -0.30700
H515        H  0.65151050  0.73320431  0.29195832     0.13500
H516        H  0.58523179  0.73847694  0.21250380     0.14100
C517        C  0.62130041  0.74395779  0.51886673    -0.15500
C518        C  0.60150353  0.72323757  0.48324700    -0.30700
H519        H  0.65543760  0.73587934  0.03279072     0.13500
H520        H  0.58180456  0.73872985  0.45727828     0.14100
C521        C  0.59528063  0.17245595  0.28325234    -0.15500
C522        C  0.61711375  0.19529727  0.31372560    -0.30700
H523        H  0.57199785  0.18522209  0.25990054     0.13500
H524        H  0.63994315  0.18208980  0.33738748     0.14100
C525        C  0.59325843  0.19724789  0.52450961    -0.15500
C526        C  0.58800982  0.17991889  0.02184106    -0.30700
H527        H  0.56546501  0.18585843  0.51047460     0.13500
H528        H  0.56173662  0.18964009  0.00176808     0.14100
C529        C  0.19899356  0.59901746  0.22114572    -0.15500
C530        C  0.22435184  0.57426987  0.24363164    -0.30700
H531        H  0.20923547  0.62606587  0.20377252     0.13500
H532        H  0.21308654  0.54724641  0.26015352     0.14100
C533        C  0.23055593  0.59702802  0.45104487    -0.15500
C534        C  0.20561784  0.56998359  0.46939958    -0.30700
H535        H  0.21857462  0.62356136  0.43378838     0.13500
H536        H  0.20920224  0.61771980  0.98717692     0.14100
C537        C  0.77459113  0.55335867  0.24238736    -0.15500
C538        C  0.75422667  0.58098535  0.26757580    -0.30700
H539        H  0.75961817  0.52797052  0.22666387     0.13500
H540        H  0.76989073  0.60608933  0.28303214     0.14100
C541        C  0.76973494  0.54938085  0.98554199    -0.15500
C542        C  0.75061865  0.57988601  0.45746511    -0.30700
H543        H  0.76441330  0.52764012  0.49753307     0.13500
H544        H  0.76265275  0.60345018  0.02207120     0.14100
C545        C  0.37909807  0.19961752  0.25219424    -0.15500
C546        C  0.35266768  0.17591311  0.22952873    -0.30700
H547        H  0.40631345  0.18675738  0.26628825     0.13500
H548        H  0.32556852  0.18799465  0.21412438     0.14100
C549        C  0.37249226  0.20073894  0.48422509    -0.15500
C550        C  0.34479944  0.17438129  0.47209575    -0.30700
H551        H  0.40783915  0.18518986  0.99609176     0.13500
H552        H  0.31626869  0.18412552  0.45843066     0.14100
C553        C  0.39125001  0.74813114  0.24817036    -0.15500
C554        C  0.36446798  0.72685933  0.27373486    -0.30700
H555        H  0.41618629  0.73376951  0.23086770     0.13500
H556        H  0.34013254  0.74234902  0.29064724     0.14100
C557        C  0.36983981  0.73190755  0.52950215    -0.15500
C558        C  0.38490675  0.74525645  0.98033919    -0.30700
H559        H  0.32706062  0.73470582  0.00339034     0.13500
H560        H  0.41711369  0.73519298  0.47800022     0.14100
O561        O  0.41341478  0.80851616  0.98427069    -0.70800
O562        O  0.41014553  0.92561933  0.48726807    -0.71100
O563        O  0.41468994  0.86873711  0.55987809    -0.70900
O564        O  0.41035788  0.86524613  0.91381535    -0.70900
O565        O  0.34685671  0.86072241  0.91333507    -0.70900
O566        O  0.35113978  0.86497453  0.55796704    -0.70900
O567        O  0.34444569  0.91638993  0.98544871    -0.70900
O568        O  0.35716550  0.80910214  0.48910370    -0.71000
V569        V  0.41412987  0.86994123  0.48719005     1.35200
V570        V  0.35321170  0.86430938  0.48575959     1.35200
C571        C  0.39057383  0.79322991  0.49063069     0.78400
C572        C  0.37663963  0.94128628  0.48403415     0.78400
C573        C  0.38269915  0.86542409  0.58345127     0.78300
C574        C  0.37857675  0.86279741  0.88898170     0.78300
O575        O  0.41595966  0.80726100  0.73762605    -0.70800
O576        O  0.40810855  0.91867519  0.73625943    -0.71100
O577        O  0.41103551  0.86317624  0.80961482    -0.70900
O578        O  0.41341028  0.86360915  0.66493504    -0.70900
O579        O  0.35004025  0.85765840  0.66243488    -0.70900
O580        O  0.34746105  0.85992457  0.80747474    -0.70900
O581        O  0.34467228  0.91369280  0.73233900    -0.70900
O582        O  0.35248441  0.80277989  0.73805107    -0.71000
V583        V  0.41091552  0.86294537  0.73718489     1.35200
V584        V  0.34991452  0.85849128  0.73503914     1.35200
C585        C  0.38555375  0.78611613  0.73901658     0.78400
C586        C  0.37489953  0.93495901  0.73295265     0.78400
C587        C  0.37893555  0.86201128  0.83311893     0.78300
C588        C  0.38203518  0.86198012  0.63915430     0.78300
O589        O  0.32829312  0.10615239  0.97306023    -0.70800
O590        O  0.33792488  0.99852284  0.47963143    -0.71100
O591        O  0.32976704  0.05366096  0.55057307    -0.70900
O592        O  0.33310669  0.04759922  0.90663062    -0.70900
O593        O  0.39633143  0.05500767  0.90626095    -0.70900
O594        O  0.39294898  0.06136597  0.55234510    -0.70900
O595        O  0.40220979  0.00131659  0.98184048    -0.70900
O596        O  0.38582220  0.11739103  0.47950281    -0.71000
V597        V  0.33488733  0.05115997  0.97885687     1.35200
V598        V  0.39579390  0.05679734  0.97876804     1.35200
C599        C  0.35804734  0.12799240  0.97188184     0.78400
C600        C  0.37212130  0.97980646  0.98409398     0.78400
C601        C  0.36132409  0.05642061  0.57603738     0.78300
C602        C  0.36444584  0.05092669  0.88186932     0.78300
O603        O  0.32445330  0.10314994  0.72760936    -0.70800
O604        O  0.33726398  0.99292117  0.72990035    -0.71100
O605        O  0.33172153  0.04822102  0.80147985    -0.70900
O606        O  0.33036990  0.04818577  0.65626109    -0.70900
O607        O  0.39345618  0.05669336  0.65662488    -0.70900
O608        O  0.39513505  0.05386351  0.80137183    -0.70900
O609        O  0.40055078  0.99968161  0.72831882    -0.70900
O610        O  0.38771627  0.11026151  0.73043053    -0.71000
V611        V  0.33219603  0.04816529  0.72885182     1.35200
V612        V  0.39300132  0.05494571  0.72904652     1.35200
C613        C  0.35389367  0.12539077  0.72884472     0.78400
C614        C  0.37091549  0.97756781  0.73013237     0.78400
C615        C  0.36372566  0.05081512  0.82601000     0.78300
C616        C  0.36164120  0.05363737  0.63187147     0.78300
O617        O  0.83481601  0.52319845  0.97797062    -0.70800
O618        O  0.95232548  0.53930273  0.47922413    -0.71100
O619        O  0.89706979  0.53489472  0.55173354    -0.70900
O620        O  0.89157943  0.52908236  0.90606923    -0.70900
O621        O  0.88403473  0.59241476  0.90683378    -0.70900
O622        O  0.88934297  0.59822107  0.54988493    -0.70900
O623        O  0.94031886  0.59685723  0.97794796    -0.70900
O624        O  0.83496612  0.59155930  0.47420278    -0.71000
V625        V  0.89672522  0.53492273  0.47949899     1.35200
V626        V  0.89091284  0.59589771  0.47711583     1.35200
C627        C  0.81906080  0.55798328  0.47645601     0.78400
C628        C  0.96855431  0.57273060  0.47830965     0.78400
C629        C  0.89283589  0.56675078  0.57543312     0.78300
C630        C  0.88921166  0.56121190  0.88182357     0.78300
O631        O  0.83933833  0.53030743  0.72776202    -0.70800
O632        O  0.95065676  0.53518504  0.72711601    -0.71100
O633        O  0.89490940  0.53109025  0.80034614    -0.70900
O634        O  0.89441999  0.53423208  0.65534723    -0.70900
O635        O  0.89024950  0.59789469  0.65673057    -0.70900
O636        O  0.89288059  0.59482918  0.80213905    -0.70900
O637        O  0.94717836  0.59889456  0.72748781    -0.70900
O638        O  0.83675777  0.59400168  0.73160454    -0.71000
V639        V  0.89484266  0.53392321  0.72771167     1.35200
V640        V  0.89195061  0.59515132  0.72943743     1.35200
C641        C  0.81934563  0.56136703  0.73141473     0.78400
C642        C  0.96771697  0.56808720  0.72563452     0.78400
C643        C  0.89258256  0.56240142  0.82587603     0.78300
C644        C  0.89233126  0.56646846  0.63140730     0.78300
O645        O  0.13105438  0.61868758  0.97155353    -0.70800
O646        O  0.03064939  0.60753024  0.47554980    -0.71100
O647        O  0.08989600  0.60788990  0.54402337    -0.70900
O648        O  0.07560034  0.61255764  0.89918627    -0.70900
O649        O  0.08019668  0.54890010  0.89929053    -0.70900
O650        O  0.08722608  0.54415964  0.54512702    -0.70900
O651        O  0.02792162  0.54213899  0.97582985    -0.70900
O652        O  0.14208536  0.54267447  0.47208550    -0.71000
V653        V  0.07588200  0.61089580  0.97172107     1.35200
V654        V  0.08318522  0.55005689  0.97152942     1.35200
C655        C  0.15354279  0.58944838  0.96693119     0.78400
C656        C  0.00526998  0.57158630  0.97526496     0.78400
C657        C  0.08820862  0.57630901  0.56921000     0.78300
C658        C  0.07867664  0.58087198  0.87470347     0.78300
O659        O  0.13562452  0.61805814  0.72208876    -0.70800
O660        O  0.02577456  0.60496014  0.71987807    -0.71100
O661        O  0.07940495  0.61245078  0.79347348    -0.70900
O662        O  0.08193044  0.60955247  0.64827118    -0.70900
O663        O  0.08958626  0.54622729  0.65118034    -0.70900
O664        O  0.08628477  0.54901058  0.79567656    -0.70900
O665        O  0.03252992  0.54152064  0.72198035    -0.70900
O666        O  0.14359609  0.55481627  0.72583712    -0.71000
V667        V  0.08083810  0.60998829  0.72090890     1.35200
V668        V  0.08793652  0.54910414  0.72352332     1.35200
C669        C  0.15837224  0.58892610  0.72400785     0.78400
C670        C  0.01039321  0.57136209  0.72209600     0.78400
C671        C  0.08142437  0.58090581  0.81904970     0.78300
C672        C  0.08663533  0.57737370  0.62513400     0.78300
O673        O  0.56516820  0.11358821  0.02556627    -0.70800
O674        O  0.58324556  0.99877163  0.52655284    -0.71100
O675        O  0.58313387  0.05445107  0.59972148    -0.70900
O676        O  0.57244055  0.05724091  0.95464166    -0.70900
O677        O  0.63532092  0.06700924  0.95622393    -0.70900
O678        O  0.64675403  0.05236883  0.60199159    -0.70900
O679        O  0.64202850  0.00978663  0.02653942    -0.70900
O680        O  0.64897497  0.10886491  0.53192086    -0.71000
V681        V  0.58504492  0.05494596  0.52779006     1.35200
V682        V  0.64618781  0.05366502  0.52898550     1.35200
C683        C  0.61801773  0.12893822  0.53231608     0.78400
C684        C  0.61507977  0.97958773  0.52501081     0.78400
C685        C  0.61451010  0.05421316  0.62541296     0.78300
C686        C  0.60415044  0.06166734  0.93081514     0.78300
O687        O  0.57207320  0.11153816  0.77269779    -0.70800
O688        O  0.58147892  0.00071102  0.77774181    -0.71100
O689        O  0.57434589  0.05785135  0.84821768    -0.70900
O690        O  0.58008008  0.05423335  0.70335181    -0.70900
O691        O  0.64324900  0.06156014  0.70786318    -0.70900
O692        O  0.63785380  0.06124125  0.85245038    -0.70900
O693        O  0.64491631  0.00558180  0.77935461    -0.70900
O694        O  0.63517771  0.11745574  0.78065419    -0.71000
V695        V  0.57825039  0.05622884  0.77570243     1.35200
V696        V  0.63910249  0.06140620  0.78012086     1.35200
C697        C  0.60172600  0.13343547  0.77645155     0.78400
C698        C  0.61458886  0.98422411  0.77713735     0.78400
C699        C  0.60533807  0.06022727  0.87491832     0.78300
C700        C  0.61270145  0.05666217  0.68111888     0.78300
O701        O  0.65957125  0.81535727  0.01982029    -0.70800
O702        O  0.64824119  0.91845572  0.51953808    -0.71100
O703        O  0.65003069  0.86450531  0.59339483    -0.70900
O704        O  0.65459138  0.87140533  0.94774978    -0.70900
O705        O  0.59098161  0.86902865  0.94757664    -0.70900
O706        O  0.58652498  0.86008518  0.59257794    -0.70900
O707        O  0.58711823  0.92184145  0.02414350    -0.70900
O708        O  0.58783564  0.80533903  0.51752881    -0.71000
V709        V  0.65384505  0.87124401  0.02034142     1.35200
V710        V  0.59295055  0.86624213  0.01981719     1.35200
C711        C  0.62945060  0.79396777  0.01505836     0.78400
C712        C  0.61705835  0.94372144  0.02384649     0.78400
C713        C  0.61833465  0.86332100  0.61754358     0.78300
C714        C  0.62261094  0.86950744  0.92309972     0.78300
O715        O  0.65508766  0.81228128  0.77106056    -0.70800
O716        O  0.64979187  0.92394285  0.76988577    -0.71100
O717        O  0.65351928  0.86903367  0.84251568    -0.70900
O718        O  0.65114023  0.86717597  0.69759818    -0.70900
O719        O  0.58749734  0.86609447  0.69818104    -0.70900
O720        O  0.59009359  0.86368126  0.84307296    -0.70900
O721        O  0.58632588  0.92059699  0.77309327    -0.70900
O722        O  0.59157606  0.80892353  0.76767249    -0.71000
V723        V  0.65115883  0.86801291  0.77013033     1.35200
V724        V  0.59010210  0.86490654  0.77057864     1.35200
C725        C  0.62440279  0.79165150  0.76796563     0.78400
C726        C  0.61713820  0.94120750  0.77325821     0.78400
C727        C  0.62207676  0.86734313  0.86733757     0.78300
C728        C  0.61894078  0.86571575  0.67332836     0.78300
N729        N  0.41243412  0.38326698  0.96207827    -0.35700
N730        N  0.32782158  0.38037980  0.97622051    -0.56200
N731        N  0.33033546  0.29572762  0.97513579    -0.35700
N732        N  0.41482166  0.29906884  0.96228855    -0.56200
C733        C  0.40099011  0.41873326  0.94379439     0.27900
C734        C  0.44975293  0.37734161  0.94688098     0.27900
C735        C  0.29358199  0.30139188  0.99266084     0.27900
C736        C  0.34044791  0.25820366  0.98665269     0.27900
C737        C  0.33403959  0.41942981  0.97941359     0.36500
C738        C  0.29020753  0.37420942  0.98947729     0.36500
C739        C  0.45254593  0.30603504  0.95030588     0.36500
C740        C  0.40926141  0.26013431  0.95626474     0.36500
C741        C  0.43087789  0.43478048  0.91500371    -0.21000
C742        C  0.46181264  0.40909623  0.91773697    -0.21000
C743        C  0.28006997  0.26720467  0.01506981    -0.21000
C744        C  0.30988895  0.24029672  0.01244186    -0.21000
C745        C  0.30110557  0.43778603  0.99828794    -0.22000
C746        C  0.27274131  0.40970928  0.00174318    -0.22000
C747        C  0.47034680  0.27189838  0.93379012    -0.22000
C748        C  0.44299927  0.24274854  0.93779383    -0.22000
C749        C  0.36644062  0.43899501  0.95780220    -0.17400
C750        C  0.47153734  0.34256913  0.95606684    -0.17400
C751        C  0.37596263  0.23941981  0.97293267    -0.17400
C752        C  0.27213342  0.33684693  0.99166501    -0.17400
H753        H  0.43085275  0.46269241  0.89511543     0.15500
H754        H  0.48899833  0.41310784  0.89798959     0.15500
H755        H  0.25225829  0.26272481  0.03365478     0.15500
H756        H  0.30904828  0.21104656  0.02859146     0.15500
H757        H  0.29687956  0.46868314  0.00576613     0.13800
H758        H  0.24295439  0.41589299  0.01215432     0.13800
H759        H  0.50019475  0.26825084  0.92118681     0.13800
H760        H  0.44781477  0.21207906  0.92930632     0.13800
H761        H  0.39750070  0.36599630  0.98838809     0.27100
H762        H  0.34611805  0.31510208  0.95251439     0.27100
N763        N  0.41285151  0.37662068  0.74334410    -0.35700
N764        N  0.32776121  0.37737258  0.75090963    -0.56200
N765        N  0.32876198  0.29250078  0.75584536    -0.35700
N766        N  0.41456962  0.29265344  0.75051996    -0.56200
C767        C  0.40288418  0.41136195  0.72156653     0.27900
C768        C  0.44984665  0.36847755  0.72893813     0.27900
C769        C  0.29114029  0.29873167  0.77002884     0.27900
C770        C  0.33648647  0.25379913  0.76223606     0.27900
C771        C  0.33645728  0.41578443  0.75662298     0.36500
C772        C  0.29172095  0.37191609  0.77040317     0.36500
C773        C  0.45290685  0.29875365  0.74088549     0.36500
C774        C  0.40763412  0.25448268  0.74055253     0.36500
C775        C  0.43331197  0.42445113  0.69121556    -0.21000
C776        C  0.46301331  0.39732099  0.69587561    -0.21000
C777        C  0.27471893  0.26318963  0.78460991    -0.21000
C778        C  0.30339309  0.23519200  0.78065835    -0.21000
C779        C  0.30624470  0.43466596  0.78146728    -0.22000
C780        C  0.27779060  0.40700069  0.78981408    -0.22000
C781        C  0.46979891  0.26488717  0.72199911    -0.22000
C782        C  0.44135226  0.23666120  0.72266481    -0.22000
C783        C  0.36990584  0.43398087  0.73545663    -0.17400
C784        C  0.47172388  0.33548388  0.74549909    -0.17400
C785        C  0.37225419  0.23466490  0.75059163    -0.17400
C786        C  0.27154521  0.33555255  0.77211163    -0.17400
H787        H  0.43478464  0.45179170  0.67020123     0.15500
H788        H  0.49120102  0.39885210  0.67749434     0.15500
H789        H  0.24556922  0.25756852  0.79843593     0.15500
H790        H  0.30005576  0.20464206  0.79108744     0.15500
H791        H  0.30461123  0.46522667  0.79217119     0.13800
H792        H  0.25043604  0.41202638  0.80921051     0.13800
H793        H  0.49919240  0.26104780  0.70784528     0.13800
H794        H  0.44502491  0.20654390  0.71064552     0.13800
H795        H  0.39761969  0.36202027  0.77204020     0.27100
H796        H  0.34752394  0.31267471  0.73910731     0.27100
N797        N  0.40670347  0.54124262  0.95477032    -0.35700
N798        N  0.40206883  0.62475330  0.97160345    -0.56200
N799        N  0.31667109  0.62056351  0.96078085    -0.35700
N800        N  0.32271740  0.53908262  0.93700984    -0.56200
C801        C  0.44150079  0.54965588  0.97687691     0.27900
C802        C  0.39641129  0.50524952  0.97163135     0.27900
C803        C  0.32277847  0.65979645  0.96192029     0.27900
C804        C  0.28059149  0.61462775  0.94011280     0.27900
C805        C  0.43950611  0.61808079  0.98641455     0.36500
C806        C  0.39084869  0.65780391  0.99548970     0.36500
C807        C  0.33293395  0.50167946  0.92694295     0.36500
C808        C  0.28517968  0.54365707  0.92163423     0.36500
C809        C  0.45285044  0.51979048  0.00984934    -0.21000
C810        C  0.42413788  0.49165689  0.00676570    -0.21000
C811        C  0.29034819  0.67901016  0.94140642    -0.21000
C812        C  0.26377735  0.65051672  0.92768825    -0.21000
C813        C  0.45128714  0.64531795  0.02248830    -0.22000
C814        C  0.42049558  0.67084003  0.02786253    -0.22000
C815        C  0.30264931  0.48308059  0.90111587    -0.22000
C816        C  0.27202211  0.50937999  0.89872050    -0.22000
C817        C  0.46137381  0.58533253  0.97081738    -0.17400
C818        C  0.36524946  0.48292445  0.95108858    -0.17400
C819        C  0.26262263  0.57770777  0.93103480    -0.17400
C820        C  0.35608319  0.67847993  0.98339776    -0.17400
H821        H  0.47872207  0.51879359  0.03407747     0.15500
H822        H  0.42412235  0.46396515  0.02718977     0.15500
H823        H  0.28622444  0.71028654  0.93640300     0.15500
H824        H  0.23563961  0.65561026  0.90940070     0.15500
H825        H  0.47891331  0.64634354  0.04309585     0.13800
H826        H  0.42005243  0.69623984  0.05251351     0.13800
H827        H  0.30151617  0.45271395  0.88933983     0.13800
H828        H  0.24341505  0.50335816  0.88256402     0.13800
H829        H  0.39302250  0.55771507  0.92595137     0.27100
H830        H  0.33460982  0.59957363  0.97807506     0.27100
N831        N  0.41452915  0.53582803  0.73540542    -0.35700
N832        N  0.41085087  0.61966629  0.75626415    -0.56200
N833        N  0.32600593  0.61862659  0.74449767    -0.35700
N834        N  0.33005028  0.53521915  0.72813362    -0.56200
C835        C  0.45018772  0.54317869  0.75599869     0.27900
C836        C  0.40474074  0.49871320  0.74900306     0.27900
C837        C  0.33131281  0.65405064  0.76665579     0.27900
C838        C  0.28837282  0.60771006  0.75261404     0.27900
C839        C  0.44993352  0.61444255  0.76235493     0.36500
C840        C  0.40365039  0.65757467  0.76831948     0.36500
C841        C  0.33924122  0.49915362  0.71102938     0.36500
C842        C  0.29276230  0.54208854  0.71356503     0.36500
C843        C  0.46245142  0.51088075  0.78449302    -0.21000
C844        C  0.43362086  0.48307130  0.78049011    -0.21000
C845        C  0.29675761  0.66581510  0.78933006    -0.21000
C846        C  0.26993362  0.63625505  0.78137666    -0.21000
C847        C  0.46679140  0.64789591  0.78283189    -0.22000
C848        C  0.43766202  0.67529491  0.78603685    -0.22000
C849        C  0.30827157  0.48360860  0.68316048    -0.22000
C850        C  0.27850577  0.51077266  0.68524860    -0.22000
C851        C  0.47034692  0.57928239  0.75171431    -0.17400
C852        C  0.37165200  0.47809386  0.73033478    -0.17400
C853        C  0.27035097  0.57343540  0.73238063    -0.17400
C854        C  0.36644812  0.67603384  0.76632111    -0.17400
H855        H  0.48794420  0.50794612  0.80873477     0.15500
H856        H  0.43388556  0.45461393  0.79893936     0.15500
H857        H  0.29160077  0.69214153  0.81117478     0.15500
H858        H  0.24034978  0.63593983  0.79567983     0.15500
H859        H  0.49679370  0.65192452  0.79542961     0.13800
H860        H  0.44097160  0.70443475  0.80172754     0.13800
H861        H  0.30641227  0.45468847  0.66638162     0.13800
H862        H  0.24925022  0.50714989  0.66969225     0.13800
H863        H  0.39941587  0.55410643  0.70990500     0.27100
H864        H  0.34580297  0.60477366  0.72056034     0.27100
N865        N  0.55370405  0.40297195  0.96444848    -0.35700
N866        N  0.65789482  0.38759508  0.96704307    -0.56200
N867        N  0.65574585  0.30777386  0.00804701    -0.35700
N868        N  0.57194240  0.30362496  0.99201908    -0.56200
C869        C  0.58420880  0.41486676  0.93593186     0.27900
C870        C  0.53921832  0.37030770  0.94172400     0.27900
C871        C  0.69472701  0.31323632  0.00198369     0.27900
C872        C  0.64971299  0.26842693  0.01247308     0.27900
C873        C  0.65143051  0.42536854  0.95314256     0.36500
C874        C  0.69623984  0.38453353  0.97842207     0.36500
C875        C  0.53379904  0.31363492  0.99663484     0.36500
C876        C  0.57768445  0.27088654  0.02068574     0.36500
C877        C  0.58886301  0.38954512  0.89490979    -0.21000
C878        C  0.56032643  0.36138830  0.89867832    -0.21000
C879        C  0.71357113  0.27717694  0.00267157    -0.21000
C880        C  0.68529967  0.24900900  0.00858357    -0.21000
C881        C  0.68634910  0.44548571  0.95032416    -0.22000
C882        C  0.71442442  0.42046839  0.96933197    -0.22000
C883        C  0.51571613  0.28827932  0.03063545    -0.22000
C884        C  0.54335423  0.26074486  0.04507124    -0.22000
C885        C  0.61333642  0.44144673  0.95224193    -0.17400
C886        C  0.51525315  0.34315973  0.96632889    -0.17400
C887        C  0.61344791  0.24973756  0.02313008    -0.17400
C888        C  0.71443271  0.34961186  0.99653502    -0.17400
H889        H  0.61231204  0.38987709  0.86739471     0.15500
H890        H  0.55761822  0.33539364  0.87544315     0.15500
H891        H  0.74456953  0.27162311  0.99835625     0.15500
H892        H  0.69073199  0.21774529  0.00990747     0.15500
H893        H  0.69075929  0.47586515  0.93967524     0.13800
H894        H  0.74432018  0.42906951  0.97689750     0.13800
H895        H  0.48554947  0.28890012  0.04279917     0.13800
H896        H  0.53880253  0.23637032  0.07097072     0.13800
H897        H  0.54600760  0.41380427  0.00022719     0.27100
H898        H  0.63522651  0.32989559  0.01380967     0.27100
N899        N  0.56990877  0.38603470  0.74959336    -0.35700
N900        N  0.57516634  0.29893624  0.76329707    -0.56200
N901        N  0.65908847  0.30383837  0.75898010    -0.35700
N902        N  0.65430842  0.38857283  0.74610896    -0.56200
C903        C  0.53318499  0.37578358  0.76299574     0.27900
C904        C  0.57683372  0.42272465  0.76804949     0.27900
C905        C  0.65474063  0.26449718  0.76373680     0.27900
C906        C  0.69569452  0.31057756  0.74174056     0.27900
C907        C  0.53738734  0.30618103  0.77444866     0.36500
C908        C  0.58493335  0.26519786  0.78785571     0.36500
C909        C  0.64418130  0.42625499  0.73650330     0.36500
C910        C  0.69018344  0.38298195  0.72634113     0.36500
C911        C  0.51647079  0.40563057  0.79071643    -0.21000
C912        C  0.54389900  0.43491779  0.79441788    -0.21000
C913        C  0.68917113  0.24595710  0.75008276    -0.21000
C914        C  0.71503965  0.27490963  0.73661530    -0.21000
C915        C  0.52373640  0.27821780  0.80854466    -0.22000
C916        C  0.55374609  0.25191525  0.81652352    -0.22000
C917        C  0.67317431  0.44432756  0.70814752    -0.22000
C918        C  0.70261148  0.41711080  0.70248686    -0.22000
C919        C  0.51577570  0.33860333  0.75531448    -0.17400
C920        C  0.61173981  0.44497978  0.75960348    -0.17400
C921        C  0.71223519  0.34778671  0.73047606    -0.17400
C922        C  0.62086507  0.24514947  0.78156120    -0.17400
H923        H  0.48804413  0.40550098  0.80842568     0.15500
H924        H  0.53946059  0.46129940  0.81571548     0.15500
H925        H  0.69521903  0.21478995  0.74947433     0.15500
H926        H  0.74457113  0.26971213  0.72385295     0.15500
H927        H  0.49519345  0.27708081  0.82597194     0.13800
H928        H  0.55281073  0.22614723  0.84081381     0.13800
H929        H  0.67361837  0.47431633  0.69435483     0.13800
H930        H  0.72994811  0.42186259  0.68289532     0.13800
H931        H  0.58785637  0.36934052  0.72619233     0.27100
H932        H  0.63925524  0.32473308  0.77103541     0.27100
N933        N  0.56145525  0.54078354  0.97461446    -0.35700
N934        N  0.64625039  0.54012951  0.98526854    -0.56200
N935        N  0.64838367  0.62593967  0.99236791    -0.35700
N936        N  0.56494581  0.62778252  0.97173733    -0.56200
C937        C  0.57067067  0.50463155  0.95631967     0.27900
C938        C  0.52621214  0.55098913  0.95497340     0.27900
C939        C  0.68688895  0.61672687  0.98858842     0.27900
C940        C  0.64434530  0.66430237  0.97931547     0.27900
C941        C  0.63393077  0.50397604  0.99923116     0.36500
C942        C  0.68032921  0.54669593  0.01044754     0.36500
C943        C  0.52642149  0.62242445  0.96072550     0.36500
C944        C  0.57215103  0.66677111  0.96617267     0.36500
C945        C  0.54076002  0.49234823  0.92384417    -0.21000
C946        C  0.51281862  0.52147382  0.92310393    -0.21000
C947        C  0.70747100  0.64959276  0.97275391    -0.21000
C948        C  0.68069127  0.67951908  0.96698210    -0.21000
C949        C  0.65917794  0.48846348  0.03608253    -0.22000
C950        C  0.68935458  0.51514206  0.04196770    -0.22000
C951        C  0.51029989  0.65739180  0.94330455    -0.22000
C952        C  0.53855518  0.68554664  0.94840349    -0.22000
C953        C  0.60501551  0.48327679  0.97076443    -0.17400
C954        C  0.50587039  0.58626156  0.96565885    -0.17400
C955        C  0.60864387  0.68565694  0.97603340    -0.17400
C956        C  0.70394031  0.58002846  0.00186744    -0.17400
H957        H  0.53868028  0.46583359  0.90202457     0.15500
H958        H  0.48601893  0.52129477  0.90070720     0.15500
H959        H  0.73851808  0.65187852  0.96555093     0.15500
H960        H  0.68717538  0.70883392  0.95346476     0.15500
H961        H  0.65761170  0.45966139  0.05358163     0.13800
H962        H  0.71506503  0.51161458  0.06609181     0.13800
H963        H  0.48129499  0.66236679  0.92758587     0.13800
H964        H  0.53446083  0.71600905  0.93813044     0.13800
H965        H  0.57662149  0.55658492  0.00249045     0.27100
H966        H  0.62681631  0.60795232  0.00755483     0.27100
N967        N  0.55691650  0.52328133  0.75142592    -0.35700
N968        N  0.57095720  0.62207038  0.73393995    -0.56200
N969        N  0.65430400  0.62743566  0.75606250    -0.35700
N970        N  0.65819763  0.54350310  0.77411082    -0.56200
C971        C  0.53750640  0.55392944  0.77204279     0.27900
C972        C  0.58420372  0.51258574  0.78639428     0.27900
C973        C  0.64711941  0.66457416  0.73936765     0.27900
C974        C  0.69363716  0.62157701  0.75427820     0.27900
C975        C  0.53381764  0.61208900  0.72101120     0.36500
C976        C  0.57634040  0.65946313  0.71852130     0.36500
C977        C  0.65251029  0.50536664  0.78584315     0.36500
C978        C  0.69606821  0.55122898  0.78287281     0.36500
C979        C  0.55221849  0.56281118  0.81987194    -0.21000
C980        C  0.58216501  0.53685724  0.82881932    -0.21000
C981        C  0.68219860  0.68253693  0.72725301    -0.21000
C982        C  0.71137761  0.65556954  0.73639982    -0.21000
C983        C  0.51685939  0.64180586  0.69200283    -0.22000
C984        C  0.54331951  0.67239269  0.69189214    -0.22000
C985        C  0.68668598  0.48859575  0.80445032    -0.15600
C986        C  0.71451163  0.51790397  0.80273638    -0.22000
C987        C  0.51423516  0.57996484  0.74415550    -0.17400
C988        C  0.61595909  0.48743539  0.77727212    -0.17400
C989        C  0.71433155  0.58664065  0.76800112    -0.17400
C990        C  0.60975830  0.68222946  0.73126077    -0.17400
H991        H  0.54431655  0.58748810  0.84356115     0.15500
H992        H  0.60193230  0.53707644  0.86143239     0.15500
H993        H  0.68628131  0.71153571  0.71112874     0.15500
H994        H  0.74217210  0.66047373  0.72958638     0.15500
H995        H  0.48742340  0.64266113  0.67631058     0.13800
H996        H  0.53841031  0.70079479  0.67437435     0.13800
H997        H  0.69104055  0.45871322  0.81755219     0.13800
H998        H  0.74494431  0.51476158  0.81394810     0.13800
H999        H  0.55422419  0.51293105  0.71402528     0.27100
H1000       H  0.63367726  0.60832145  0.77098082     0.27100
O1001       O  0.14619203  0.38603704  0.01941202    -0.70800
O1002       O  0.02370302  0.39246068  0.50720805    -0.71100
O1003       O  0.07661374  0.39124036  0.58462374    -0.70900
O1004       O  0.09414718  0.38934037  0.94027664    -0.70900
O1005       O  0.08865284  0.32579631  0.93982857    -0.70900
O1006       O  0.07972737  0.32749717  0.58427368    -0.70900
O1007       O  0.03253956  0.32819037  0.01056835    -0.70900
O1008       O  0.13451144  0.32759615  0.51209862    -0.71000
V1009       V  0.07916107  0.39057319  0.51227598     1.35200
V1010       V  0.07874986  0.32929362  0.51178890     1.35200
C1011       C  0.15329167  0.35932780  0.51727399     0.78400
C1012       C  0.00442869  0.36084414  0.50759745     0.78400
C1013       C  0.07915030  0.35923007  0.60902491     0.78300
C1014       C  0.09125988  0.35776396  0.91532045     0.78300
O1015       O  0.14191066  0.39073168  0.75667474    -0.70800
O1016       O  0.03128053  0.39063817  0.76521748    -0.71100
O1017       O  0.09074585  0.39019285  0.83435796    -0.70900
O1018       O  0.08217281  0.39081799  0.68938193    -0.70900
O1019       O  0.08581431  0.32710499  0.68927562    -0.70900
O1020       O  0.08714020  0.32651411  0.83442786    -0.70900
O1021       O  0.03078274  0.32694695  0.76075741    -0.70900
O1022       O  0.14258911  0.32707226  0.76237301    -0.71000
V1023       V  0.08658164  0.38934061  0.76167263     1.35200
V1024       V  0.08664098  0.32807795  0.76182230     1.35200
C1025       C  0.16114986  0.35910306  0.75845633     0.78400
C1026       C  0.01215662  0.35906306  0.76145780     0.78400
C1027       C  0.08990683  0.35820150  0.85911141     0.78300
C1028       C  0.08234282  0.35901059  0.66479355     0.78300
O1029       O  0.84251030  0.33302825  0.00079562    -0.70800
O1030       O  0.94195574  0.33017341  0.50332529    -0.71100
O1031       O  0.88878343  0.33199390  0.57722167    -0.70900
O1032       O  0.89815258  0.33219874  0.93107479    -0.70900
O1033       O  0.90269666  0.39587357  0.93073699    -0.70900
O1034       O  0.88864378  0.39580287  0.57598805    -0.70900
O1035       O  0.95438715  0.39486724  0.00875401    -0.70900
O1036       O  0.83168635  0.39606274  0.50377852    -0.71000
V1037       V  0.89769840  0.33345201  0.00354633     1.35200
V1038       V  0.89889028  0.39476626  0.00274453     1.35200
C1039       C  0.82479676  0.36503634  0.99347420     0.78400
C1040       C  0.97249468  0.36250323  0.00763471     0.78400
C1041       C  0.89006176  0.36412819  0.60115605     0.78300
C1042       C  0.89969532  0.36413340  0.90639306     0.78300
O1043       O  0.83746284  0.33697219  0.75084750    -0.70800
O1044       O  0.94879100  0.32958482  0.75722653    -0.71100
O1045       O  0.89231193  0.33301065  0.82636959    -0.70900
O1046       O  0.89395767  0.33278129  0.68181718    -0.70900
O1047       O  0.89451136  0.39659709  0.68118920    -0.70900
O1048       O  0.89941138  0.39643793  0.82619197    -0.70900
O1049       O  0.95223468  0.39321953  0.75282559    -0.70900
O1050       O  0.84164955  0.40051282  0.75575512    -0.71000
V1051       V  0.89316700  0.33428464  0.75406239     1.35200
V1052       V  0.89689200  0.39546212  0.75383998     1.35200
C1053       C  0.82074188  0.37014931  0.75228353     0.78400
C1054       C  0.96934159  0.36045833  0.75701026     0.78400
C1055       C  0.89713950  0.36452948  0.85076583     0.78300
C1056       C  0.89307456  0.36458373  0.65693813     0.78300
C1057       C  0.75539330  0.34929086  0.72329828    -0.15500
C1058       C  0.77785152  0.37370580  0.75098272    -0.30700
H1059       H  0.76944182  0.32728125  0.69987629     0.13500
H1060       H  0.76445476  0.39639435  0.77404086     0.14100
C1061       C  0.78359631  0.36516847  0.97948375    -0.15500
C1062       C  0.75670509  0.34972752  0.01010432    -0.30700
H1063       H  0.77554321  0.37789836  0.94276285     0.13500
H1064       H  0.76168579  0.30864261  0.53690729     0.14100
C1065       C  0.22803524  0.33554500  0.77975546    -0.15500
C1066       C  0.20413929  0.36027476  0.75407778    -0.30700
H1067       H  0.21489684  0.31385107  0.80466888     0.13500
H1068       H  0.21641448  0.38270253  0.72937902     0.14100
C1069       C  0.20610230  0.35143319  0.02671282    -0.15500
C1070       C  0.22864572  0.33351828  0.99241431    -0.30700
H1071       H  0.20838578  0.38185003  0.54901269     0.13500
H1072       H  0.21485848  0.31615734  0.96248779     0.14100
C1073       C  0.62758087  0.74844049  0.76547345    -0.15500
C1074       C  0.60589858  0.72626394  0.73315165    -0.30700
H1075       H  0.64989634  0.73483922  0.78951873     0.13500
H1076       H  0.58360990  0.74081143  0.71006933     0.14100
C1077       C  0.63300436  0.75067715  0.01018299    -0.15500
C1078       C  0.60926213  0.72995810  0.97864424    -0.30700
H1079       H  0.64068840  0.72915781  0.54589757     0.13500
H1080       H  0.58800268  0.74656086  0.95641031     0.14100
C1081       C  0.59656417  0.17651493  0.77422190    -0.15500
C1082       C  0.62369375  0.20189628  0.79152614    -0.30700
H1083       H  0.56983628  0.18758597  0.75645808     0.13500
H1084       H  0.65047341  0.19034823  0.80863331     0.14100
C1085       C  0.61461443  0.20668890  0.03757127    -0.15500
C1086       C  0.62145245  0.17180729  0.53824678    -0.30700
H1087       H  0.64038099  0.19581766  0.05777980     0.13500
H1088       H  0.64895262  0.18272196  0.55373435     0.14100
C1089       C  0.20101938  0.59559371  0.72304531    -0.15500
C1090       C  0.22709034  0.56743217  0.73472969    -0.30700
H1091       H  0.21113722  0.62461499  0.71211179     0.13500
H1092       H  0.21649318  0.53819565  0.74394006     0.14100
C1093       C  0.21874774  0.57436010  0.93099593    -0.15500
C1094       C  0.19623595  0.59528090  0.96309417    -0.30700
H1095       H  0.20459305  0.55215310  0.90773285     0.13500
H1096       H  0.21775423  0.54363688  0.48702461     0.14100
C1097       C  0.77679243  0.55955826  0.73676413    -0.15500
C1098       C  0.75756495  0.58710070  0.76324674    -0.30700
H1099       H  0.76126366  0.53469579  0.72047857     0.13500
H1100       H  0.77358730  0.61176649  0.77928225     0.14100
C1101       C  0.77571342  0.55317786  0.47765156    -0.15500
C1102       C  0.74773077  0.57798226  0.00641726    -0.30700
H1103       H  0.75575013  0.52342618  0.96981538     0.13500
H1104       H  0.76304838  0.60492038  0.43763024     0.14100
C1105       C  0.37459246  0.19118401  0.75214518    -0.15500
C1106       C  0.34872381  0.16799743  0.72829568    -0.30700
H1107       H  0.39990585  0.17796861  0.77108411     0.13500
H1108       H  0.32322519  0.18031562  0.70890073     0.14100
C1109       C  0.38046403  0.19617647  0.97993112    -0.15500
C1110       C  0.35301241  0.17048655  0.96506292    -0.30700
H1111       H  0.40116048  0.19010457  0.49634992     0.13500
H1112       H  0.32575833  0.18083352  0.94796593     0.14100
C1113       C  0.38900153  0.74299678  0.74089055    -0.15500
C1114       C  0.36366593  0.72003238  0.76663495    -0.30700
H1115       H  0.41351732  0.73004010  0.72099941     0.13500
H1116       H  0.33900034  0.73400066  0.78497440     0.14100
C1117       C  0.35450911  0.72173178  0.99134103    -0.15500
C1118       C  0.39424381  0.75087292  0.49801758    -0.30700
H1119       H  0.34754121  0.74833575  0.54957155     0.13500
H1120       H  0.41217961  0.73291480  0.96672479     0.14100
loop_ 
_geom_bond_atom_site_label_1 
_geom_bond_atom_site_label_2 
_geom_bond_distance 
_geom_bond_site_symmetry_2 
_ccdc_geom_bond_type 
O1          V569   1.898       .  S
O1          C571   1.262       .  A
O2            V9   1.903       .  S
O2           C12   1.264       .  A
O3            V9   1.898   1_554  S
O3           C13   1.263       .  A
O4          V569   1.902       .  S
O4           C14   1.264       .  A
O5          V570   1.894       .  S
O5           C14   1.263       .  A
O6           V10   1.903   1_554  S
O6           C13   1.265       .  A
O7          V570   1.891       .  S
O7          C572   1.263       .  A
O8           V10   1.894       .  S
O8           C11   1.263       .  A
V9          O561   1.899       .  S
V9          O564   1.893       .  S
V9           V10   2.089       .  T
V10         O565   1.903       .  S
V10         O567   1.892       .  S
C11         O561   1.264       .  A
C11         C558   1.467       .  S
C12         O567   1.263       .  A
C12         C600   1.463       .  S
C13          C28   1.467       .  S
C14          C27   1.463       .  S
O15          V23   1.907       .  S
O15          C25   1.265       .  A
O16          V23   1.910       .  S
O16          C26   1.266       .  A
O17          V23   1.902       .  S
O17          C27   1.264       .  A
O18          V23   1.899       .  S
O18          C28   1.264       .  A
O19          V24   1.902       .  S
O19          C28   1.264       .  A
O20          V24   1.894       .  S
O20          C27   1.263       .  A
O21          V24   1.903       .  S
O21          C26   1.265       .  A
O22          V24   1.901       .  S
O22          C25   1.265       .  A
V23          V24   2.088       .  T
C25         C553   1.478       .  S
C26          C54   1.475       .  S
O29          V37   1.896       .  S
O29          C39   1.262       .  A
O30         V597   1.891   1_565  S
O30         C600   1.262       .  A
O31         V597   1.897   1_554  S
O31          C41   1.264       .  A
O32          V37   1.900       .  S
O32          C42   1.264       .  A
O33          V38   1.897       .  S
O33          C42   1.263       .  A
O34         V598   1.900   1_554  S
O34          C41   1.263       .  A
O35          V38   1.903       .  S
O35          C40   1.265   1_545  A
O36         V598   1.902       .  S
O36         C599   1.266       .  A
V37         O590   1.890   1_545  S
V37         O591   1.903       .  S
V37          V38   2.089       .  T
V38         O594   1.894       .  S
V38         O596   1.906       .  S
C39         O596   1.267       .  A
C39         C550   1.475       .  S
C40         O590   1.262       .  A
C40         C572   1.461       .  S
C41          C56   1.464       .  S
C42          C55   1.464       .  S
O43          V51   1.904       .  S
O43          C53   1.264       .  A
O44          V51   1.904   1_565  S
O44          C54   1.265       .  A
O45          V51   1.898       .  S
O45          C55   1.263       .  A
O46          V51   1.893       .  S
O46          C56   1.262       .  A
O47          V52   1.904       .  S
O47          C56   1.265       .  A
O48          V52   1.900       .  S
O48          C55   1.264       .  A
O49          V52   1.909       .  S
O49          C54   1.266   1_545  A
O50          V52   1.908       .  S
O50          C53   1.266       .  A
V51          V52   2.088       .  T
C53         C546   1.481       .  S
O57         V625   1.910       .  S
O57         C627   1.266       .  A
O58          V65   1.913       .  S
O58          C68   1.267       .  A
O59          V65   1.903   1_554  S
O59          C69   1.264       .  A
O60         V625   1.892       .  S
O60          C70   1.261       .  A
O61         V626   1.897       .  S
O61          C70   1.264       .  A
O62          V66   1.894   1_554  S
O62          C69   1.263       .  A
O63         V626   1.921       .  S
O63         C628   1.267       .  A
O64          V66   1.908       .  S
O64          C67   1.267       .  A
V65         O617   1.917       .  S
V65         O620   1.904       .  S
V65          V66   2.087       .  T
V66         O621   1.901       .  S
V66         O623   1.903       .  S
C67         O617   1.267       .  A
C67         C541   1.491       .  S
C68         O623   1.265       .  A
C68         C656   1.478   1_655  S
C69          C84   1.464       .  S
C70          C83   1.457       .  S
O71          V79   1.909       .  S
O71          C81   1.266       .  A
O72          V79   1.912       .  S
O72          C82   1.265       .  A
O73          V79   1.899       .  S
O73          C83   1.265       .  A
O74          V79   1.901       .  S
O74          C84   1.264       .  A
O75          V80   1.895       .  S
O75          C84   1.263       .  A
O76          V80   1.890       .  S
O76          C83   1.261       .  A
O77          V80   1.896       .  S
O77          C82   1.264       .  A
O78          V80   1.902       .  S
O78          C81   1.265       .  A
V79          V80   2.088       .  T
C81         C537   1.480       .  S
C82         C110   1.471   1_655  S
O85          V93   1.938       .  S
O85          C95   1.275       .  A
O86         V653   1.906       .  S
O86         C656   1.266       .  A
O87         V653   1.896   1_554  S
O87          C97   1.262       .  A
O88          V93   1.890       .  S
O88          C98   1.259       .  A
O89          V94   1.909       .  S
O89          C98   1.268       .  A
O90         V654   1.901   1_554  S
O90          C97   1.265       .  A
O91          V94   1.892       .  S
O91          C96   1.261       .  A
O92         V654   1.908       .  S
O92         C655   1.265       .  A
V93         O646   1.934       .  S
V93         O647   1.892       .  S
V93          V94   2.086       .  T
V94         O650   1.908       .  S
V94         O652   1.894       .  S
C95         O652   1.260       .  A
C95         C534   1.493       .  S
C96         O646   1.273       .  A
C96         C628   1.485   1_455  S
C97         C112   1.464       .  S
C98         C111   1.465       .  S
O99         V107   1.891       .  S
O99         C109   1.259       .  A
O100        V107   1.888       .  S
O100        C110   1.261       .  A
O101        V107   1.906       .  S
O101        C111   1.267       .  A
O102        V107   1.902       .  S
O102        C112   1.265       .  A
O103        V108   1.895       .  S
O103        C112   1.262       .  A
O104        V108   1.893       .  S
O104        C111   1.260       .  A
O105        V108   1.917       .  S
O105        C110   1.268       .  A
O106        V108   1.912       .  S
O106        C109   1.269       .  A
V107        V108   2.088       .  T
C109        C529   1.474       .  S
O113        V681   1.919       .  S
O113        C683   1.270       .  A
O114        V121   1.908       .  S
O114        C124   1.266   1_545  A
O115        V121   1.909       .  S
O115        C125   1.266       .  A
O116        V681   1.883       .  S
O116        C126   1.258       .  A
O117        V682   1.913       .  S
O117        C126   1.269       .  A
O118        V122   1.893       .  S
O118        C125   1.262       .  A
O119        V682   1.889   1_565  S
O119        C684   1.260       .  A
O120        V122   1.922       .  S
O120        C123   1.270       .  A
V121        O673   1.912       .  S
V121        O676   1.904   1_554  S
V121        V122   2.087       .  T
V122        O677   1.894   1_554  S
V122        O679   1.919       .  S
C123        O673   1.266       .  A
C123        C526   1.495       .  S
C124        O679   1.268   1_565  A
C124        C712   1.486       .  S
C125        C140   1.467       .  S
C126        C139   1.464       .  S
O127        V135   1.889       .  S
O127        C137   1.259       .  A
O128        V135   1.891   1_565  S
O128        C138   1.261       .  A
O129        V135   1.902       .  S
O129        C139   1.267       .  A
O130        V135   1.905       .  S
O130        C140   1.265       .  A
O131        V136   1.896       .  S
O131        C140   1.264       .  A
O132        V136   1.897       .  S
O132        C139   1.260       .  A
O133        V136   1.910       .  S
O133        C138   1.267   1_545  A
O134        V136   1.906       .  S
O134        C137   1.267       .  A
V135        V136   2.088       .  T
C137        C521   1.464       .  S
C138        C166   1.467       .  S
O141        V149   1.906       .  S
O141        C151   1.266       .  A
O142        V709   1.919       .  S
O142        C712   1.268       .  A
O143        V709   1.901       .  S
O143        C153   1.263       .  A
O144        V149   1.895       .  S
O144        C154   1.262       .  A
O145        V150   1.905       .  S
O145        C154   1.266       .  A
O146        V710   1.897       .  S
O146        C153   1.264       .  A
O147        V150   1.901       .  S
O147        C152   1.262       .  A
O148        V710   1.908       .  S
O148        C711   1.266       .  A
V149        O702   1.902       .  S
V149        O703   1.889       .  S
V149        V150   2.088       .  T
V150        O706   1.907       .  S
V150        O708   1.901       .  S
C151        O708   1.263       .  A
C151        C517   1.472       .  S
C152        O702   1.267       .  A
C152        C684   1.469       .  S
C153        C168   1.465       .  S
C154        C167   1.466       .  S
O155        V163   1.898       .  S
O155        C165   1.263       .  A
O156        V163   1.903       .  S
O156        C166   1.263       .  A
O157        V163   1.901       .  S
O157        C167   1.265       .  A
O158        V163   1.905       .  S
O158        C168   1.265       .  A
O159        V164   1.893       .  S
O159        C168   1.262       .  A
O160        V164   1.900       .  S
O160        C167   1.263       .  A
O161        V164   1.899       .  S
O161        C166   1.265       .  A
O162        V164   1.903       .  S
O162        C165   1.265       .  A
V163        V164   2.089       .  T
C165        C513   1.469       .  S
N169        C174   1.356       .  A
N169        C173   1.353       .  A
N169        H201   1.044       .  S
N170        C177   1.361       .  A
N170        C178   1.357       .  A
N171        C176   1.358       .  A
N171        C175   1.350       .  A
N171        H202   1.042       .  S
N172        C179   1.345       .  A
N172        C180   1.345       .  A
C173        C181   1.390       .  A
C173        C189   1.423       .  A
C174        C190   1.411       .  A
C174        C182   1.379       .  A
C175        C183   1.386       .  A
C175        C192   1.411       .  A
C176        C191   1.420       .  A
C176        C184   1.387       .  A
C177        C189   1.430       .  A
C177        C185   1.385       .  A
C178        C192   1.425       .  A
C178        C186   1.385       .  A
C179        C187   1.385       .  A
C179        C190   1.405       .  A
C180        C188   1.387       .  A
C180        C191   1.405       .  A
C181        C182   1.370       .  A
C181        H193   1.070       .  S
C182        H194   1.082       .  S
C183        C184   1.376       .  A
C183        H195   1.083       .  S
C184        H196   1.081       .  S
C185        C186   1.366       .  A
C185        H197   1.078       .  S
C186        H198   1.080       .  S
C187        C188   1.376       .  A
C187        H199   1.082       .  S
C188        H200   1.082       .  S
C189        C258   1.536       .  S
C190        C326   1.505       .  S
C191        C549   1.495       .  S
C192        C510   1.495       .  S
N203        C208   1.361       .  A
N203        C207   1.347       .  A
N203        H235   1.043       .  S
N204        C211   1.352       .  A
N204        C212   1.355       .  A
N205        C210   1.355       .  A
N205        C209   1.360       .  A
N205        H236   1.040       .  S
N206        C213   1.358       .  A
N206        C214   1.353       .  A
C207        C215   1.384       .  A
C207        C223   1.414       .  A
C208        C224   1.429       .  A
C208        C216   1.390       .  A
C209        C217   1.387       .  A
C209        C226   1.425       .  A
C210        C225   1.426       .  A
C210        C218   1.388       .  A
C211        C223   1.421       .  A
C211        C219   1.387       .  A
C212        C226   1.422       .  A
C212        C220   1.387       .  A
C213        C221   1.385       .  A
C213        C224   1.423       .  A
C214        C222   1.387       .  A
C214        C225   1.418       .  A
C215        C216   1.380       .  A
C215        H227   1.083       .  S
C216        H228   1.075       .  S
C217        C218   1.377       .  A
C217        H229   1.081       .  S
C218        H230   1.081       .  S
C219        C220   1.370       .  A
C219        H231   1.081       .  S
C220        H232   1.082       .  S
C221        C222   1.376       .  A
C221        H233   1.082       .  S
C222        H234   1.082       .  S
C223        C292   1.523       .  S
C224        C359   1.536       .  S
C225        C545   1.502       .  S
C226        C505   1.512       .  S
N237        C242   1.359       .  A
N237        C241   1.353       .  A
N237        H269   1.045       .  S
N238        C245   1.352       .  A
N238        C246   1.345       .  A
N239        C244   1.358       .  A
N239        C243   1.353       .  A
N239        H270   1.041       .  S
N240        C247   1.352       .  A
N240        C248   1.351       .  A
C241        C249   1.390       .  A
C241        C257   1.412       .  A
C242        C258   1.405       .  A
C242        C250   1.381       .  A
C243        C251   1.389       .  A
C243        C260   1.417       .  A
C244        C259   1.418       .  A
C244        C252   1.387       .  A
C245        C257   1.409       .  A
C245        C253   1.382       .  A
C246        C260   1.415       .  A
C246        C254   1.391       .  A
C247        C255   1.385       .  A
C247        C258   1.419       .  A
C248        C256   1.386       .  A
C248        C259   1.420       .  A
C249        C250   1.376       .  A
C249        H261   1.082       .  S
C250        H262   1.082       .  S
C251        C252   1.373       .  A
C251        H263   1.081       .  S
C252        H264   1.082       .  S
C253        C254   1.375       .  A
C253        H265   1.082       .  S
C254        H266   1.082       .  S
C255        C256   1.387       .  A
C255        H267   1.079       .  S
C256        H268   1.082       .  S
C257        C394   1.527       .  S
C259        C533   1.506       .  S
C260        C557   1.479       .  S
N271        C276   1.350       .  A
N271        C275   1.352       .  A
N271        H303   1.044       .  S
N272        C279   1.351       .  A
N272        C280   1.349       .  A
N273        C278   1.357       .  A
N273        C277   1.356       .  A
N273        H304   1.040       .  S
N274        C281   1.349       .  A
N274        C282   1.348       .  A
C275        C283   1.390       .  A
C275        C291   1.417       .  A
C276        C292   1.407       .  A
C276        C284   1.385       .  A
C277        C285   1.389       .  A
C277        C294   1.423       .  A
C278        C293   1.421       .  A
C278        C286   1.385       .  A
C279        C291   1.415       .  A
C279        C287   1.386       .  A
C280        C294   1.418       .  A
C280        C288   1.388       .  A
C281        C289   1.385       .  A
C281        C292   1.408       .  A
C282        C290   1.386       .  A
C282        C293   1.405       .  A
C283        C284   1.376       .  A
C283        H295   1.082       .  S
C284        H296   1.082       .  S
C285        C286   1.376       .  A
C285        H297   1.080       .  S
C286        H298   1.081       .  S
C287        C288   1.375       .  A
C287        H299   1.082       .  S
C288        H300   1.082       .  S
C289        C290   1.369       .  A
C289        H301   1.082       .  S
C290        H302   1.083       .  S
C291        C427   1.510       .  S
C293        C530   1.492       .  S
C294        C554   1.499       .  S
N305        C310   1.351       .  A
N305        C309   1.349       .  A
N305        H337   1.042       .  S
N306        C313   1.349       .  A
N306        C314   1.349       .  A
N307        C312   1.356       .  A
N307        C311   1.356       .  A
N307        H338   1.043       .  S
N308        C315   1.350       .  A
N308        C316   1.348       .  A
C309        C317   1.387       .  A
C309        C325   1.412       .  A
C310        C326   1.414       .  A
C310        C318   1.386       .  A
C311        C319   1.386       .  A
C311        C328   1.419       .  A
C312        C327   1.424       .  A
C312        C320   1.389       .  A
C313        C325   1.411       .  A
C313        C321   1.386       .  A
C314        C328   1.413       .  A
C314        C322   1.387       .  A
C315        C323   1.387       .  A
C315        C326   1.413       .  A
C316        C324   1.387       .  A
C316        C327   1.409       .  A
C317        C318   1.375       .  A
C317        H329   1.082       .  S
C318        H330   1.079       .  S
C319        C320   1.380       .  A
C319        H331   1.082       .  S
C320        H332   1.082       .  S
C321        C322   1.378       .  A
C321        H333   1.082       .  S
C322        H334   1.082       .  S
C323        C324   1.377       .  A
C323        H335   1.082       .  S
C324        H336   1.082       .  S
C325        C393   1.498       .  S
C327        C525   1.498       .  S
C328        C502   1.501       .  S
N339        C344   1.358       .  A
N339        C343   1.351       .  A
N339        H371   1.045       .  S
N340        C347   1.353       .  A
N340        C348   1.345       .  A
N341        C346   1.359       .  A
N341        C345   1.356       .  A
N341        H372   1.039       .  S
N342        C349   1.351       .  A
N342        C350   1.352       .  A
C343        C351   1.390       .  A
C343        C359   1.413       .  A
C344        C360   1.401       .  A
C344        C352   1.380       .  A
C345        C353   1.388       .  A
C345        C362   1.421       .  A
C346        C361   1.421       .  A
C346        C354   1.387       .  A
C347        C359   1.416       .  A
C347        C355   1.383       .  A
C348        C362   1.420       .  A
C348        C356   1.391       .  A
C349        C357   1.387       .  A
C349        C360   1.416       .  A
C350        C358   1.386       .  A
C350        C361   1.416       .  A
C351        C352   1.376       .  A
C351        H363   1.082       .  S
C352        H364   1.083       .  S
C353        C354   1.371       .  A
C353        H365   1.081       .  S
C354        H366   1.082       .  S
C355        C356   1.378       .  A
C355        H367   1.081       .  S
C356        H368   1.081       .  S
C357        C358   1.379       .  A
C357        H369   1.082       .  S
C358        H370   1.082       .  S
C360        C428   1.513       .  S
C361        C497   1.505       .  S
C362        C522   1.486       .  S
N373        C378   1.358       .  A
N373        C377   1.349       .  A
N373        H405   1.044       .  S
N374        C381   1.350       .  A
N374        C382   1.354       .  A
N375        C380   1.355       .  A
N375        C379   1.359       .  A
N375        H406   1.041       .  S
N376        C383   1.357       .  A
N376        C384   1.351       .  A
C377        C385   1.388       .  A
C377        C393   1.417       .  A
C378        C394   1.422       .  A
C378        C386   1.388       .  A
C379        C387   1.385       .  A
C379        C396   1.422       .  A
C380        C395   1.426       .  A
C380        C388   1.391       .  A
C381        C393   1.417       .  A
C381        C389   1.388       .  A
C382        C396   1.417       .  A
C382        C390   1.385       .  A
C383        C391   1.387       .  A
C383        C394   1.426       .  A
C384        C392   1.387       .  A
C384        C395   1.417       .  A
C385        C386   1.381       .  A
C385        H397   1.083       .  S
C386        H398   1.080       .  S
C387        C388   1.374       .  A
C387        H399   1.081       .  S
C388        H400   1.080       .  S
C389        C390   1.377       .  A
C389        H401   1.082       .  S
C390        H402   1.082       .  S
C391        C392   1.379       .  A
C391        H403   1.082       .  S
C392        H404   1.081       .  S
C395        C518   1.497       .  S
C396        C542   1.510       .  S
N407        C412   1.352       .  A
N407        C411   1.354       .  A
N407        H439   1.043       .  S
N408        C415   1.350       .  A
N408        C416   1.347       .  A
N409        C414   1.358       .  A
N409        C413   1.357       .  A
N409        H440   1.037       .  S
N410        C417   1.352       .  A
N410        C418   1.353       .  A
C411        C419   1.386       .  A
C411        C427   1.416       .  A
C412        C428   1.412       .  A
C412        C420   1.387       .  A
C413        C421   1.386       .  A
C413        C430   1.423       .  A
C414        C429   1.423       .  A
C414        C422   1.389       .  A
C415        C427   1.414       .  A
C415        C423   1.386       .  A
C416        C430   1.413       .  A
C416        C424   1.389       .  A
C417        C425   1.385       .  A
C417        C428   1.418       .  A
C418        C426   1.387       .  A
C418        C429   1.420       .  A
C419        C420   1.373       .  A
C419        H431   1.082       .  S
C420        H432   1.079       .  S
C421        C422   1.372       .  A
C421        H433   1.082       .  S
C422        H434   1.082       .  S
C423        C424   1.374       .  A
C423        H435   1.082       .  S
C424        H436   1.081       .  S
C425        C426   1.373       .  A
C425        H437   1.082       .  S
C426        H438   1.082       .  S
C429        C538   1.500       .  S
C430        C514   1.498       .  S
O441       V1009   1.894       .  S
O441       C1011   1.262       .  A
O442        V449   1.898       .  S
O442        C452   1.263       .  A
O443        V449   1.893       .  S
O443        C453   1.262       .  A
O444       V1009   1.902       .  S
O444        C454   1.264       .  A
O445       V1010   1.892       .  S
O445        C454   1.262       .  A
O446        V450   1.903       .  S
O446        C453   1.265       .  A
O447       V1010   1.906       .  S
O447       C1012   1.266       .  A
O448        V450   1.899       .  S
O448        C451   1.263       .  A
V449       O1001   1.899       .  S
V449       O1004   1.904   1_554  S
V449        V450   2.089       .  T
V450       O1005   1.903   1_554  S
V450       O1007   1.893       .  S
C451       O1001   1.264       .  A
C451       C1069   1.466       .  S
C452       O1007   1.263       .  A
C452       C1040   1.460   1_455  S
C453        C468   1.462       .  S
C454        C467   1.462       .  S
O455        V463   1.905       .  S
O455        C465   1.265       .  A
O456        V463   1.908       .  S
O456        C466   1.266       .  A
O457        V463   1.900       .  S
O457        C467   1.264       .  A
O458        V463   1.895       .  S
O458        C468   1.263       .  A
O459        V464   1.900       .  S
O459        C468   1.264       .  A
O460        V464   1.893       .  S
O460        C467   1.263       .  A
O461        V464   1.918       .  S
O461        C466   1.268       .  A
O462        V464   1.918       .  S
O462        C465   1.268       .  A
V463        V464   2.087       .  T
C465        C506   1.486       .  S
C466        C494   1.484   1_455  S
O469        V477   1.906       .  S
O469        C479   1.265       .  A
O470       V1037   1.890       .  S
O470       C1040   1.262       .  A
O471       V1037   1.900       .  S
O471        C481   1.265       .  A
O472        V477   1.908       .  S
O472        C482   1.266       .  A
O473        V478   1.898       .  S
O473        C482   1.263       .  A
O474       V1038   1.902       .  S
O474        C481   1.264       .  A
O475        V478   1.902       .  S
O475        C480   1.265       .  A
O476       V1038   1.892   1_556  S
O476       C1039   1.262       .  A
V477       O1030   1.902       .  S
V477       O1031   1.899       .  S
V477        V478   2.088       .  T
V478       O1034   1.897       .  S
V478       O1036   1.906       .  S
C479       O1036   1.266       .  A
C479        C501   1.481       .  S
C480       O1030   1.264       .  A
C480       C1012   1.469   1_655  S
C481        C496   1.468       .  S
C482        C495   1.471       .  S
O483        V491   1.919       .  S
O483        C493   1.269       .  A
O484        V491   1.918       .  S
O484        C494   1.268       .  A
O485        V491   1.904       .  S
O485        C495   1.264       .  A
O486        V491   1.898       .  S
O486        C496   1.263       .  A
O487        V492   1.905       .  S
O487        C496   1.265       .  A
O488        V492   1.902       .  S
O488        C495   1.265       .  A
O489        V492   1.907       .  S
O489        C494   1.266       .  A
O490        V492   1.907       .  S
O490        C493   1.265       .  A
V491        V492   2.087       .  T
C493        C498   1.489       .  S
C497        C498   1.349       .  D
C497        H499   1.086       .  S
C498        H500   1.086       .  S
C501        C502   1.351       .  D
C501        H503   1.085       .  S
C502       H1064   1.087       .  S
H504       C1062   1.088       .  S
C505        C506   1.352       .  D
C505        H507   1.084       .  S
C506        H508   1.086       .  S
C509       C1011   1.468       .  S
C509        C510   1.341       .  D
C509       H1071   1.086       .  S
C510        H512   1.087       .  S
H511       C1069   1.085       .  S
C513        C514   1.346       .  D
C513        H515   1.086       .  S
C514        H516   1.084       .  S
C517        C518   1.349       .  D
C517       H1079   1.086       .  S
C518        H520   1.086       .  S
H519       C1077   1.085       .  S
C521        C522   1.339       .  D
C521        H523   1.087       .  S
C522        H524   1.086       .  S
C525       C1086   1.340       .  D
C525        H527   1.087       .  S
C526       C1085   1.351       .  D
C526        H528   1.085       .  S
C529        C530   1.338       .  D
C529        H531   1.086       .  S
C530        H532   1.088       .  S
C533        C534   1.346       .  D
C533        H535   1.086       .  S
C534       H1096   1.087       .  S
H536       C1094   1.085       .  S
C537        C538   1.349       .  D
C537        H539   1.086       .  S
C538        H540   1.087       .  S
C541       C1102   1.351   1_556  D
C541       H1103   1.086       .  S
C542       C1101   1.351       .  D
C542       H1104   1.086       .  S
H543       C1101   1.085       .  S
H544       C1102   1.087       .  S
C545        C546   1.347       .  D
C545        H547   1.087       .  S
C546        H548   1.085       .  S
C549        C550   1.342       .  D
C549       H1111   1.087       .  S
C550        H552   1.085       .  S
H551       C1109   1.087       .  S
C553        C554   1.349       .  D
C553        H555   1.086       .  S
C554        H556   1.084       .  S
C557       C1118   1.343       .  D
C557       H1119   1.086       .  S
C558       C1117   1.345       .  D
C558       H1120   1.086       .  S
H559       C1117   1.087   1_554  S
H560       C1118   1.087       .  S
O562        V569   1.902       .  S
O562        C572   1.264       .  A
O563        V569   1.903       .  S
O563        C573   1.266       .  A
O564        C574   1.262       .  A
O565        C574   1.265       .  A
O566        V570   1.892       .  S
O566        C573   1.261       .  A
O568        V570   1.887       .  S
O568        C571   1.262       .  A
V569        V570   2.090       .  T
C571       C1118   1.460       .  S
C573        C588   1.463       .  S
C574        C587   1.463       .  S
O575        V583   1.905       .  S
O575        C585   1.265       .  A
O576        V583   1.901       .  S
O576        C586   1.264       .  A
O577        V583   1.896       .  S
O577        C587   1.264       .  A
O578        V583   1.894       .  S
O578        C588   1.262       .  A
O579        V584   1.901       .  S
O579        C588   1.265       .  A
O580        V584   1.900       .  S
O580        C587   1.263       .  A
O581        V584   1.890       .  S
O581        C586   1.262       .  A
O582        V584   1.901       .  S
O582        C585   1.263       .  A
V583        V584   2.089       .  T
C585       C1113   1.474       .  S
C586        C614   1.459       .  S
O589        V597   1.892       .  S
O589        C599   1.261       .  A
O591        C601   1.265       .  A
O592        V597   1.895       .  S
O592        C602   1.262       .  A
O593        V598   1.899       .  S
O593        C602   1.264       .  A
O594        C601   1.262       .  A
O595        V598   1.904       .  S
O595        C600   1.265   1_545  A
V597        V598   2.089       .  T
C599       C1110   1.468       .  S
C601        C616   1.464       .  S
C602        C615   1.462       .  S
O603        V611   1.892       .  S
O603        C613   1.260       .  A
O604        V611   1.890   1_565  S
O604        C614   1.262       .  A
O605        V611   1.901       .  S
O605        C615   1.265       .  A
O606        V611   1.900       .  S
O606        C616   1.264       .  A
O607        V612   1.896       .  S
O607        C616   1.264       .  A
O608        V612   1.894       .  S
O608        C615   1.262       .  A
O609        V612   1.900   1_565  S
O609        C614   1.264       .  A
O610        V612   1.894       .  S
O610        C613   1.265       .  A
V611        V612   2.090       .  T
C613       C1106   1.462       .  S
O618        V625   1.905       .  S
O618        C628   1.268       .  A
O619        V625   1.891       .  S
O619        C629   1.262       .  A
O620        C630   1.265       .  A
O621        C630   1.265       .  A
O622        V626   1.908       .  S
O622        C629   1.266       .  A
O624        V626   1.917       .  S
O624        C627   1.268       .  A
V625        V626   2.087       .  T
C627       C1101   1.490       .  S
C629        C644   1.465       .  S
C630        C643   1.471       .  S
O631        V639   1.900       .  S
O631        C641   1.263       .  A
O632        V639   1.907       .  S
O632        C642   1.265       .  A
O633        V639   1.903       .  S
O633        C643   1.264       .  A
O634        V639   1.894       .  S
O634        C644   1.263       .  A
O635        V640   1.905       .  S
O635        C644   1.264       .  A
O636        V640   1.903       .  S
O636        C643   1.265       .  A
O637        V640   1.892       .  S
O637        C642   1.263       .  A
O638        V640   1.887       .  S
O638        C641   1.262       .  A
V639        V640   2.089       .  T
C641       C1097   1.463       .  S
C642        C670   1.466   1_655  S
O645        V653   1.903       .  S
O645        C655   1.264       .  A
O647        C657   1.261       .  A
O648        V653   1.899       .  S
O648        C658   1.263       .  A
O649        V654   1.893       .  S
O649        C658   1.263       .  A
O650        C657   1.267       .  A
O651        V654   1.911       .  S
O651        C656   1.266       .  A
V653        V654   2.088       .  T
C655       C1094   1.476       .  S
C657        C672   1.466       .  S
C658        C671   1.461       .  S
O659        V667   1.892       .  S
O659        C669   1.260       .  A
O660        V667   1.889       .  S
O660        C670   1.262       .  A
O661        V667   1.903       .  S
O661        C671   1.265       .  A
O662        V667   1.902       .  S
O662        C672   1.266       .  A
O663        V668   1.898       .  S
O663        C672   1.262       .  A
O664        V668   1.890       .  S
O664        C671   1.261       .  A
O665        V668   1.910       .  S
O665        C670   1.266       .  A
O666        V668   1.912       .  S
O666        C669   1.269       .  A
V667        V668   2.089       .  T
C669       C1089   1.475       .  S
O674        V681   1.916   1_565  S
O674        C684   1.269       .  A
O675        V681   1.885       .  S
O675        C685   1.259       .  A
O676        C686   1.265       .  A
O677        C686   1.263       .  A
O678        V682   1.911       .  S
O678        C685   1.268       .  A
O680        V682   1.885       .  S
O680        C683   1.259       .  A
V681        V682   2.089       .  T
C683       C1086   1.474       .  S
C685        C700   1.463       .  S
C686        C699   1.465       .  S
O687        V695   1.897       .  S
O687        C697   1.262       .  A
O688        V695   1.895       .  S
O688        C698   1.262   1_545  A
O689        V695   1.905       .  S
O689        C699   1.265       .  A
O690        V695   1.897       .  S
O690        C700   1.265       .  A
O691        V696   1.898       .  S
O691        C700   1.262       .  A
O692        V696   1.894       .  S
O692        C699   1.263       .  A
O693        V696   1.912       .  S
O693        C698   1.268   1_545  A
O694        V696   1.914       .  S
O694        C697   1.268       .  A
V695        V696   2.088       .  T
C697       C1081   1.479       .  S
C698        C726   1.472       .  S
O701        V709   1.914       .  S
O701        C711   1.267       .  A
O703        C713   1.260       .  A
O704        V709   1.900   1_556  S
O704        C714   1.264       .  A
O705        V710   1.893   1_556  S
O705        C714   1.262       .  A
O706        C713   1.267       .  A
O707        V710   1.909       .  S
O707        C712   1.266       .  A
V709        V710   2.087       .  T
C711       C1077   1.486       .  S
C713        C728   1.463       .  S
C714        C727   1.462       .  S
O715        V723   1.904       .  S
O715        C725   1.265       .  A
O716        V723   1.906       .  S
O716        C726   1.264       .  A
O717        V723   1.896       .  S
O717        C727   1.262       .  A
O718        V723   1.899       .  S
O718        C728   1.265       .  A
O719        V724   1.896       .  S
O719        C728   1.262       .  A
O720        V724   1.898       .  S
O720        C727   1.264       .  A
O721        V724   1.903       .  S
O721        C726   1.266       .  A
O722        V724   1.910       .  S
O722        C725   1.266       .  A
V723        V724   2.088       .  T
C725       C1073   1.478       .  S
N729        C734   1.355       .  A
N729        C733   1.353       .  A
N729        H761   1.042       .  S
N730        C737   1.350       .  A
N730        C738   1.351       .  A
N731        C736   1.356       .  A
N731        C735   1.355       .  A
N731        H762   1.040       .  S
N732        C739   1.350       .  A
N732        C740   1.350       .  A
C733        C741   1.387       .  A
C733        C749   1.419       .  A
C734        C750   1.416       .  A
C734        C742   1.386       .  A
C735        C743   1.384   1_556  A
C735        C752   1.412       .  A
C736        C751   1.421       .  A
C736        C744   1.389   1_556  A
C737        C749   1.415       .  A
C737        C745   1.383       .  A
C738        C752   1.417       .  A
C738        C746   1.389   1_556  A
C739        C747   1.385       .  A
C739        C750   1.412       .  A
C740        C748   1.388       .  A
C740        C751   1.411       .  A
C741        C742   1.372       .  A
C741        H753   1.082       .  S
C742        H754   1.076       .  S
C743        C744   1.372       .  A
C743        H755   1.083       .  S
C744        H756   1.081       .  S
C745        C746   1.366   1_556  A
C745        H757   1.082   1_556  S
C746        H758   1.077       .  S
C747        C748   1.369       .  A
C747        H759   1.082       .  S
C748        H760   1.082       .  S
C749        C818   1.507       .  S
C750        C886   1.514       .  S
C751       C1109   1.491       .  S
C752       C1070   1.490       .  S
N763        C768   1.351       .  A
N763        C767   1.353       .  A
N763        H795   1.043       .  S
N764        C771   1.351       .  A
N764        C772   1.350       .  A
N765        C770   1.354       .  A
N765        C769   1.358       .  A
N765        H796   1.039       .  S
N766        C773   1.352       .  A
N766        C774   1.348       .  A
C767        C775   1.388       .  A
C767        C783   1.416       .  A
C768        C784   1.413       .  A
C768        C776   1.385       .  A
C769        C777   1.389       .  A
C769        C786   1.423       .  A
C770        C785   1.421       .  A
C770        C778   1.387       .  A
C771        C783   1.417       .  A
C771        C779   1.385       .  A
C772        C786   1.419       .  A
C772        C780   1.387       .  A
C773        C781   1.385       .  A
C773        C784   1.413       .  A
C774        C782   1.388       .  A
C774        C785   1.412       .  A
C775        C776   1.376       .  A
C775        H787   1.081       .  S
C776        H788   1.082       .  S
C777        C778   1.371       .  A
C777        H789   1.080       .  S
C778        H790   1.081       .  S
C779        C780   1.373       .  A
C779        H791   1.081       .  S
C780        H792   1.082       .  S
C781        C782   1.368       .  A
C781        H793   1.082       .  S
C782        H794   1.082       .  S
C783        C852   1.510       .  S
C784        C919   1.527       .  S
C785       C1105   1.484       .  S
C786       C1065   1.502       .  S
N797        C802   1.350       .  A
N797        C801   1.348       .  A
N797        H829   1.044       .  S
N798        C805   1.351       .  A
N798        C806   1.348       .  A
N799        C804   1.356       .  A
N799        C803   1.354       .  A
N799        H830   1.040       .  S
N800        C807   1.349       .  A
N800        C808   1.348       .  A
C801        C809   1.383   1_556  A
C801        C817   1.402       .  A
C802        C818   1.412       .  A
C802        C810   1.390   1_556  A
C803        C811   1.388       .  A
C803        C820   1.416       .  A
C804        C819   1.420       .  A
C804        C812   1.386       .  A
C805        C817   1.407       .  A
C805        C813   1.384   1_556  A
C806        C820   1.412       .  A
C806        C814   1.388   1_556  A
C807        C815   1.385       .  A
C807        C818   1.416       .  A
C808        C816   1.388       .  A
C808        C819   1.416       .  A
C809        C810   1.374       .  A
C809        H821   1.082       .  S
C810        H822   1.082       .  S
C811        C812   1.376       .  A
C811        H823   1.082       .  S
C812        H824   1.082       .  S
C813        C814   1.373       .  A
C813        H825   1.082       .  S
C814        H826   1.082       .  S
C815        C816   1.377       .  A
C815        H827   1.082       .  S
C816        H828   1.081       .  S
C817        C954   1.528       .  S
C819       C1093   1.503       .  S
C820       C1117   1.490       .  S
N831        C836   1.355       .  A
N831        C835   1.351       .  A
N831        H863   1.043       .  S
N832        C839   1.354       .  A
N832        C840   1.354       .  A
N833        C838   1.357       .  A
N833        C837   1.353       .  A
N833        H864   1.041       .  S
N834        C841   1.348       .  A
N834        C842   1.345       .  A
C835        C843   1.388       .  A
C835        C851   1.415       .  A
C836        C852   1.415       .  A
C836        C844   1.383       .  A
C837        C845   1.386       .  A
C837        C854   1.415       .  A
C838        C853   1.423       .  A
C838        C846   1.388       .  A
C839        C851   1.416       .  A
C839        C847   1.385       .  A
C840        C854   1.417       .  A
C840        C848   1.386       .  A
C841        C849   1.386       .  A
C841        C852   1.406       .  A
C842        C850   1.388       .  A
C842        C853   1.407       .  A
C843        C844   1.371       .  A
C843        H855   1.076       .  S
C844        H856   1.081       .  S
C845        C846   1.377       .  A
C845        H857   1.081       .  S
C846        H858   1.081       .  S
C847        C848   1.367       .  A
C847        H859   1.082       .  S
C848        H860   1.082       .  S
C849        C850   1.376       .  A
C849        H861   1.082       .  S
C850        H862   1.082       .  S
C851        C987   1.514       .  S
C853       C1090   1.494       .  S
C854       C1114   1.502       .  S
N865        C870   1.356       .  A
N865        C869   1.350       .  A
N865        H897   1.044   1_556  S
N866        C873   1.353       .  A
N866        C874   1.344       .  A
N867        C872   1.361       .  A
N867        C871   1.356       .  A
N867        H898   1.041       .  S
N868        C875   1.353       .  A
N868        C876   1.354   1_556  A
C869        C877   1.391       .  A
C869        C885   1.410       .  A
C870        C886   1.396       .  A
C870        C878   1.379       .  A
C871        C879   1.386       .  A
C871        C888   1.418   1_554  A
C872        C887   1.423       .  A
C872        C880   1.388       .  A
C873        C885   1.411       .  A
C873        C881   1.379       .  A
C874        C888   1.419       .  A
C874        C882   1.394       .  A
C875        C883   1.388   1_556  A
C875        C886   1.422       .  A
C876        C884   1.385       .  A
C876        C887   1.418       .  A
C877        C878   1.372       .  A
C877        H889   1.083       .  S
C878        H890   1.080       .  S
C879        C880   1.372       .  A
C879        H891   1.083   1_554  S
C880        H892   1.081       .  S
C881        C882   1.370       .  A
C881        H893   1.082       .  S
C882        H894   1.079       .  S
C883        C884   1.379       .  A
C883        H895   1.082       .  S
C884        H896   1.082       .  S
C885        C953   1.535       .  S
C887       C1085   1.513       .  S
C888       C1062   1.483   1_556  S
N899        C904   1.362       .  A
N899        C903   1.352       .  A
N899        H931   1.042       .  S
N900        C907   1.349       .  A
N900        C908   1.354       .  A
N901        C906   1.353       .  A
N901        C905   1.354       .  A
N901        H932   1.035       .  S
N902        C909   1.351       .  A
N902        C910   1.349       .  A
C903        C911   1.379       .  A
C903        C919   1.414       .  A
C904        C920   1.432       .  A
C904        C912   1.390       .  A
C905        C913   1.385       .  A
C905        C922   1.415       .  A
C906        C921   1.420       .  A
C906        C914   1.390       .  A
C907        C919   1.414       .  A
C907        C915   1.387       .  A
C908        C922   1.415       .  A
C908        C916   1.385       .  A
C909        C917   1.387       .  A
C909        C920   1.420       .  A
C910        C918   1.386       .  A
C910        C921   1.418       .  A
C911        C912   1.373       .  A
C911        H923   1.080       .  S
C912        H924   1.072       .  S
C913        C914   1.372       .  A
C913        H925   1.082       .  S
C914        H926   1.081       .  S
C915        C916   1.374       .  A
C915        H927   1.082       .  S
C916        H928   1.082       .  S
C917        C918   1.377       .  A
C917        H929   1.082       .  S
C918        H930   1.082       .  S
C920        C988   1.527       .  S
C921       C1057   1.489       .  S
C922       C1082   1.498       .  S
N933        C938   1.348       .  A
N933        C937   1.362       .  A
N933        H965   1.042   1_556  S
N934        C941   1.352       .  A
N934        C942   1.351   1_556  A
N935        C940   1.356       .  A
N935        C939   1.356       .  A
N935        H966   1.040   1_556  S
N936        C943   1.357       .  A
N936        C944   1.359       .  A
C937        C945   1.388       .  A
C937        C953   1.426       .  A
C938        C954   1.418       .  A
C938        C946   1.385       .  A
C939        C947   1.387       .  A
C939        C956   1.419   1_556  A
C940        C955   1.421       .  A
C940        C948   1.387       .  A
C941        C953   1.421       .  A
C941        C949   1.389   1_556  A
C942        C956   1.412       .  A
C942        C950   1.384       .  A
C943        C951   1.385       .  A
C943        C954   1.425       .  A
C944        C952   1.388       .  A
C944        C955   1.425       .  A
C945        C946   1.376       .  A
C945        H957   1.073       .  S
C946        H958   1.082       .  S
C947        C948   1.376       .  A
C947        H959   1.082       .  S
C948        H960   1.082       .  S
C949        C950   1.383       .  A
C949        H961   1.083       .  S
C950        H962   1.082       .  S
C951        C952   1.368       .  A
C951        H963   1.081       .  S
C952        H964   1.079       .  S
C955       C1078   1.512       .  S
C956       C1102   1.501       .  S
N967        C972   1.348       .  A
N967        C971   1.354       .  A
N967        H999   1.045       .  S
N968        C975   1.354       .  A
N968        C976   1.348       .  A
N969        C974   1.359       .  A
N969        C973   1.358       .  A
N969       H1000   1.038       .  S
N970        C977   1.349       .  A
N970        C978   1.338       .  A
C971        C979   1.379       .  A
C971        C987   1.390       .  A
C972        C988   1.405       .  A
C972        C980   1.390       .  A
C973        C981   1.385       .  A
C973        C990   1.423       .  A
C974        C989   1.426       .  A
C974        C982   1.389       .  A
C975        C987   1.420       .  A
C975        C983   1.385       .  A
C976        C990   1.418       .  A
C976        C984   1.389       .  A
C977        C985   1.382       .  A
C977        C988   1.407       .  A
C978        C986   1.393       .  A
C978        C989   1.414       .  A
C979        C980   1.369       .  A
C979        H991   1.083       .  S
C980        H992   1.083       .  S
C981        C982   1.373       .  A
C981        H993   1.082       .  S
C982        H994   1.082       .  S
C983        C984   1.380       .  A
C983        H995   1.082       .  S
C984        H996   1.081       .  S
C985        C986   1.380       .  A
C985        H997   1.082       .  S
C986        H998   1.082       .  S
C989       C1098   1.483       .  S
C990       C1074   1.507       .  S
O1002      V1009   1.898       .  S
O1002      C1012   1.263       .  A
O1003      V1009   1.897       .  S
O1003      C1013   1.264       .  A
O1004      C1014   1.265       .  A
O1005      C1014   1.265       .  A
O1006      V1010   1.898       .  S
O1006      C1013   1.263       .  A
O1008      V1010   1.905       .  S
O1008      C1011   1.265       .  A
V1009      V1010   2.088       .  T
C1013      C1028   1.463       .  S
C1014      C1027   1.471       .  S
O1015      V1023   1.896       .  S
O1015      C1025   1.262       .  A
O1016      V1023   1.893       .  S
O1016      C1026   1.263       .  A
O1017      V1023   1.907       .  S
O1017      C1027   1.266       .  A
O1018      V1023   1.897       .  S
O1018      C1028   1.263       .  A
O1019      V1024   1.899       .  S
O1019      C1028   1.264       .  A
O1020      V1024   1.901       .  S
O1020      C1027   1.264       .  A
O1021      V1024   1.908       .  S
O1021      C1026   1.265       .  A
O1022      V1024   1.911       .  S
O1022      C1025   1.267       .  A
V1023      V1024   2.087       .  T
C1025      C1066   1.475       .  S
C1026      C1054   1.466   1_455  S
O1029      V1037   1.886       .  S
O1029      C1039   1.259   1_554  A
O1031      C1041   1.265       .  A
O1032      V1037   1.898   1_556  S
O1032      C1042   1.264       .  A
O1033      V1038   1.891   1_556  S
O1033      C1042   1.262       .  A
O1034      C1041   1.262       .  A
O1035      V1038   1.900       .  S
O1035      C1040   1.264       .  A
V1037      V1038   2.090       .  T
C1039      C1061   1.450       .  S
C1041      C1056   1.463       .  S
C1042      C1055   1.458       .  S
O1043      V1051   1.906       .  S
O1043      C1053   1.267       .  A
O1044      V1051   1.907       .  S
O1044      C1054   1.265       .  A
O1045      V1051   1.893       .  S
O1045      C1055   1.262       .  A
O1046      V1051   1.892       .  S
O1046      C1056   1.262       .  A
O1047      V1052   1.903       .  S
O1047      C1056   1.265       .  A
O1048      V1052   1.895       .  S
O1048      C1055   1.263       .  A
O1049      V1052   1.892       .  S
O1049      C1054   1.263       .  A
O1050      V1052   1.896       .  S
O1050      C1053   1.261       .  A
V1051      V1052   2.089       .  T
C1053      C1058   1.470       .  S
C1057      C1058   1.342       .  D
C1057      H1059   1.086       .  S
C1058      H1060   1.087       .  S
C1061      C1062   1.333   1_556  D
C1061      H1063   1.085       .  S
C1065      C1066   1.345       .  D
C1065      H1067   1.084       .  S
C1066      H1068   1.086       .  S
C1069      C1070   1.338   1_554  D
C1070      H1072   1.087       .  S
C1073      C1074   1.352       .  D
C1073      H1075   1.085       .  S
C1074      H1076   1.085       .  S
C1077      C1078   1.353   1_554  D
C1078      H1080   1.083       .  S
C1081      C1082   1.345       .  D
C1081      H1083   1.086       .  S
C1082      H1084   1.086       .  S
C1085      H1087   1.086       .  S
C1086      H1088   1.086       .  S
C1089      C1090   1.340       .  D
C1089      H1091   1.086       .  S
C1090      H1092   1.087       .  S
C1093      C1094   1.350       .  D
C1093      H1095   1.084       .  S
C1097      C1098   1.344       .  D
C1097      H1099   1.086       .  S
C1098      H1100   1.087       .  S
C1105      C1106   1.337       .  D
C1105      H1107   1.088       .  S
C1106      H1108   1.086       .  S
C1109      C1110   1.339       .  D
C1110      H1112   1.086       .  S
C1113      C1114   1.351       .  D
C1113      H1115   1.085       .  S
C1114      H1116   1.085       .  S
