geometry optimzed in LAMMPS
_audit_creation_date              2020-11-30 
_audit_creation_method            'lammps2cif' 
_symmetry_space_group_name_H-M    'P1' 
_symmetry_Int_Tables_number       1 
_symmetry_cell_setting            triclinic 
loop_ 
_symmetry_equiv_pos_as_xyz 
  x,y,z 
_cell_length_a                    27.15224060570025 
_cell_length_b                    56.174074189659834 
_cell_length_c                    37.08267071841512 
_cell_angle_alpha                 90.26477457860393 
_cell_angle_beta                  90.20015209971993 
_cell_angle_gamma                 90.81826780009933 
loop_ 
_atom_site_label 
_atom_site_type_symbol 
_atom_site_fract_x 
_atom_site_fract_y 
_atom_site_fract_z 
_atom_site_charge 
O1          O  0.45409655  0.97926504  0.16527710    -0.55520
C2          C  0.06540137  0.96624515  0.18135947     0.77110
O3          O  0.04000212  0.91510721  0.12003037    -0.56680
C4          C  0.42038562  0.96389506  0.17056475     0.77080
C5          C  0.00286083  0.98145329  0.05645326     0.79470
Cd6        Cd  0.50012082  0.95472082  0.12328165     1.37460
O7          O  0.02479646  0.97641209  0.17686548    -0.55520
O8          O  0.54131981  0.97794626  0.07484048    -0.54330
C9          C  0.49971858  0.90348920  0.12150845     0.79430
O10         O  0.46388463  0.97186724  0.06835150    -0.56700
O11         O  0.07957959  0.95239517  0.15646209    -0.55150
O12         O  0.41967145  0.94590404  0.14980966    -0.55140
O13         O  0.96085481  0.91549990  0.11922242    -0.54310
O14         O  0.27622300  0.94004458  0.30383659    -0.55520
C15         C  0.17231003  0.96742478  0.31427368     0.77110
O16         O  0.28748488  0.91291888  0.37340557    -0.56680
C17         C  0.30945535  0.95589407  0.30162045     0.77080
C18         C  0.24980396  0.97870518  0.42779395     0.79470
Cd19       Cd  0.24563629  0.95096056  0.36207930     1.37460
O20         O  0.21129757  0.97935138  0.32022184    -0.55520
O21         O  0.28810616  0.97489918  0.40934775    -0.54330
C22         C  0.24833921  0.90037090  0.37208624     0.79430
O23         O  0.21035478  0.96901207  0.41636762    -0.56700
O24         O  0.16295587  0.95031575  0.33546357    -0.55150
O25         O  0.31712115  0.96850711  0.32967344    -0.55140
O26         O  0.20837762  0.91168638  0.37141206    -0.54310
O27         O  0.31526471  0.76171031  0.23139948    -0.55520
C28         C  0.15422963  0.76001380  0.25236408     0.77110
O29         O  0.25267742  0.73054183  0.33302405    -0.56680
C30         C  0.35376042  0.76180696  0.25102028     0.77080
C31         C  0.25359557  0.80390435  0.32276804     0.79470
Cd32       Cd  0.25449071  0.75991974  0.28312805     1.37470
O33         O  0.19224349  0.76193604  0.23260758    -0.55520
O34         O  0.24682128  0.80298660  0.28901724    -0.54330
C35         C  0.25764765  0.71264079  0.31247714     0.79430
O36         O  0.26141577  0.78443066  0.33873452    -0.56700
O37         O  0.16223729  0.75782620  0.28579038    -0.55150
O38         O  0.34650310  0.76167983  0.28465673    -0.55140
O39         O  0.25952568  0.71686640  0.27901789    -0.54310
O40         O  0.06505459  0.75908126  0.25674493    -0.55520
C41         C  0.40441135  0.76174597  0.23582173     0.77110
O42         O  0.51204873  0.78805159  0.15241599    -0.56680
C43         C  0.10341344  0.76032688  0.23727485     0.77080
C44         C  0.49691608  0.71547384  0.16860384     0.79470
Cd45       Cd  0.50392386  0.76088476  0.20469957     1.37460
O46         O  0.44273893  0.76159595  0.25567883    -0.55520
O47         O  0.48779666  0.71807517  0.20179751    -0.54330
C48         C  0.50130944  0.80654078  0.17023584     0.79430
O49         O  0.50993484  0.73396526  0.15150501    -0.56700
O50         O  0.41186200  0.76156498  0.20213873    -0.55150
O51         O  0.09588690  0.76190360  0.20378372    -0.55140
O52         O  0.49247022  0.80381917  0.20344364    -0.54310
O53         O  0.45663720  0.53741986  0.16611930    -0.55520
C54         C  0.05503435  0.56665469  0.18716532     0.77110
O55         O  0.47262459  0.55896506  0.06222471    -0.56680
C56         C  0.41621623  0.54768768  0.17121211     0.77080
C57         C  0.48907833  0.61833208  0.11997590     0.79470
Cd58       Cd  0.49029038  0.56767674  0.12659803     1.37460
O59         O  0.01411192  0.57695887  0.18722680    -0.55520
O60         O  0.45001284  0.60574730  0.12067450    -0.54330
C61         C  0.49946171  0.54078067  0.06018911     0.79430
O62         O  0.52926267  0.60722054  0.11698049    -0.56700
O63         O  0.06912476  0.55816406  0.15712515    -0.55150
O64         O  0.40569765  0.56441444  0.14981225    -0.55140
O65         O  0.52332237  0.53555828  0.08832831    -0.54310
O66         O  0.26653519  0.54209005  0.30784892    -0.55520
C67         C  0.16680931  0.55851642  0.31835670     0.77110
O68         O  0.21792722  0.54865894  0.41965752    -0.56680
C69         C  0.31084972  0.54860269  0.30403375     0.77080
C70         C  0.26574463  0.61512472  0.36073664     0.79470
Cd71       Cd  0.25167255  0.56434196  0.36263448     1.37470
O72         O  0.19451718  0.54120642  0.32537825    -0.55520
O73         O  0.29793879  0.60083875  0.34963311    -0.54330
C74         C  0.25650785  0.53841873  0.43014526     0.79430
O75         O  0.22978830  0.60609393  0.37776774    -0.56700
O76         O  0.17347028  0.57731345  0.33684125    -0.55150
O77         O  0.33057367  0.56022411  0.32989435    -0.55140
O78         O  0.29367099  0.54086460  0.41000041    -0.54310
O79         O  0.46790877  0.04214845  0.81338484    -0.55520
C80         C  0.07148299  0.06190969  0.80810012     0.77110
O81         O  0.53063571  0.10828647  0.87467003    -0.56680
C82         C  0.42839254  0.05335830  0.80888260     0.77080
C83         C  0.00075201  0.04118547  0.92902323     0.79470
Cd84       Cd  0.49889185  0.06749919  0.86209331     1.37460
O85         O  0.05766428  0.04406738  0.82641141    -0.55520
O86         O  0.46169132  0.04421918  0.91107832    -0.54330
C87         C  0.49005976  0.11807481  0.86718223     0.79430
O88         O  0.53909336  0.05134509  0.91682667    -0.56700
O89         O  0.05797184  0.08216689  0.81878418    -0.55150
O90         O  0.41808263  0.06876235  0.83265449    -0.55140
O91         O  0.45309448  0.10433532  0.86307789    -0.54310
O92         O  0.27949893  0.04188651  0.67200982    -0.55520
C93         C  0.17528114  0.05734349  0.67404386     0.77110
O94         O  0.21788205  0.10637329  0.61215471    -0.56680
C95         C  0.31989814  0.05294541  0.67608693     0.77080
C96         C  0.25029708  0.03918878  0.55494638     0.79470
Cd97       Cd  0.25058939  0.06565258  0.62230143     1.37470
O98         O  0.20758330  0.04201849  0.66710001    -0.55520
O99         O  0.21145961  0.04300207  0.57256938    -0.54330
C100        C  0.25675348  0.11667809  0.62362319     0.79430
O101        O  0.28931638  0.04857777  0.56755303    -0.56700
O102        O  0.17322855  0.07512597  0.65313214    -0.55150
O103        O  0.33247257  0.06753709  0.65170893    -0.55140
O104        O  0.29337730  0.10358209  0.62940145    -0.54310
O105        O  0.31205683  0.26144933  0.75705308    -0.55520
C106        C  0.15086321  0.25941636  0.73690764     0.77110
O107        O  0.25571242  0.28756225  0.65303042    -0.56680
C108        C  0.35012298  0.26165297  0.73717225     0.77080
C109        C  0.25218689  0.21399679  0.67368988     0.79470
Cd110      Cd  0.25032736  0.26050430  0.70589241     1.37470
O111        O  0.18903076  0.26090358  0.75681314    -0.55520
O112        O  0.25699319  0.21763558  0.70722655    -0.54330
C113        C  0.24718405  0.30614777  0.67139001     0.79580
O114        O  0.24514767  0.23216621  0.65424915    -0.56700
O115        O  0.15851913  0.25802647  0.70335864    -0.55150
O116        O  0.34223418  0.26186088  0.70355638    -0.55140
O117        O  0.24154662  0.30336947  0.70497577    -0.54310
O118        O  0.06192025  0.25862766  0.73197657    -0.55520
C119        C  0.40097208  0.26142962  0.75214474     0.77110
O120        O  0.50549539  0.23354172  0.83588587    -0.56680
C121        C  0.10016470  0.25953307  0.75182481     0.77080
C122        C  0.49890471  0.30723441  0.81499720     0.79470
Cd123      Cd  0.50068940  0.26057374  0.78310334     1.37470
O124        O  0.43896660  0.26091847  0.73217471    -0.55520
O125        O  0.49668829  0.30355761  0.78133763    -0.54330
C126        C  0.49426337  0.21500717  0.81783789     0.79430
O127        O  0.50313717  0.28901185  0.83478857    -0.56700
O128        O  0.40890411  0.26154273  0.78579228    -0.55150
O129        O  0.09258713  0.26076300  0.78536336    -0.55140
O130        O  0.48684730  0.21775959  0.78442028    -0.54310
O131        O  0.45172033  0.48303029  0.82630382    -0.55520
C132        C  0.06330475  0.46089627  0.80550794     0.77110
O133        O  0.48531646  0.46173750  0.93029317    -0.56680
C134        C  0.41537209  0.46913056  0.82088927     0.77080
C135        C  0.49459409  0.40453372  0.86478858     0.79470
Cd136      Cd  0.49593034  0.45537682  0.86428400     1.37460
O137        O  0.01722131  0.46022249  0.80265729    -0.55520
O138        O  0.45567684  0.41662011  0.86365061    -0.54330
C139        C  0.50146234  0.48297174  0.93060806     0.79430
O140        O  0.53460016  0.41577770  0.87104239    -0.56700
O141        O  0.08072021  0.45942803  0.83728459    -0.55150
O142        O  0.41124372  0.45153763  0.84203067    -0.55140
O143        O  0.51601781  0.49105366  0.90070900    -0.54310
O144        O  0.22080576  0.47700278  0.67456204    -0.55520
C145        C  0.32283790  0.46070499  0.68239773     0.77110
O146        O  0.28578384  0.41281933  0.61320305    -0.56680
C147        C  0.18094670  0.46526619  0.67684718     0.77080
C148        C  0.25620436  0.47997116  0.55893385     0.79470
Cd149      Cd  0.25393796  0.45326672  0.62553326     1.37460
O150        O  0.31176456  0.47787509  0.66201917    -0.55520
O151        O  0.21815160  0.47804853  0.57829304    -0.54330
C152        C  0.24487849  0.40269082  0.62024053     0.79430
O153        O  0.29352154  0.46868117  0.56967675    -0.56700
O154        O  0.30957384  0.44010112  0.67217601    -0.55150
O155        O  0.17147419  0.45059963  0.65159216    -0.55140
O156        O  0.20796869  0.41601639  0.62352366    -0.54310
C157        C  0.07255308  0.45730366  0.73883125     0.25890
C158        C  0.09359856  0.46309439  0.77269434    -0.22220
C159        C  0.14262176  0.47126453  0.77427693     0.20800
C160        C  0.17024915  0.47336704  0.74265539     0.25830
C161        C  0.14943224  0.46699567  0.70897348    -0.22160
C162        C  0.10026131  0.45913730  0.70741023     0.20730
F163        F  0.07910966  0.45278126  0.67547816    -0.12120
F164        F  0.02540486  0.44905837  0.73603498    -0.14480
F165        F  0.21812819  0.48049502  0.74531580    -0.14480
F166        F  0.16390089  0.47714679  0.80634479    -0.12120
C167        C  0.34590418  0.45461865  0.78206032     0.25890
C168        C  0.38473993  0.47100259  0.78798071    -0.22220
C169        C  0.40101741  0.48529576  0.75893131     0.20800
C170        C  0.38090082  0.48214210  0.72441098     0.25830
C171        C  0.34485435  0.46450281  0.71825693    -0.22160
C172        C  0.32647036  0.45128824  0.74752510     0.20730
F173        F  0.28922040  0.43516395  0.74274256    -0.12120
F174        F  0.32808754  0.44099302  0.80935397    -0.14480
F175        F  0.39848634  0.49543018  0.69667243    -0.14480
F176        F  0.43869576  0.50122336  0.76319466    -0.12120
C177        C  0.01874640  0.33809384  0.86274146     0.25890
C178        C  0.49602543  0.33167305  0.82979089    -0.22220
C179        C  0.47117631  0.34914604  0.81002523     0.20800
C180        C  0.46947895  0.37251552  0.82260006     0.25830
C181        C  0.49339333  0.37913862  0.85482504    -0.22160
C182        C  0.01814833  0.36182709  0.87486932     0.20730
F183        F  0.04141700  0.36786939  0.90611416    -0.12120
F184        F  0.04294463  0.32164292  0.88249445    -0.14480
F185        F  0.44639368  0.38904025  0.80219967    -0.14480
F186        F  0.44840348  0.34366193  0.77832113    -0.12120
C187        C  0.27163027  0.33658372  0.62479648     0.25890
C188        C  0.24341879  0.33000857  0.65505354    -0.22220
C189        C  0.21263388  0.34691804  0.67106070     0.20800
C190        C  0.21106886  0.37008099  0.65789253     0.25830
C191        C  0.24103330  0.37708998  0.62882196    -0.22160
C192        C  0.27106123  0.36011295  0.61213531     0.20730
F193        F  0.30034224  0.36639225  0.58405184    -0.12120
F194        F  0.30162167  0.32062118  0.60870607    -0.14480
F195        F  0.18267561  0.38612984  0.67539405    -0.14480
F196        F  0.18442758  0.34115327  0.70001071    -0.12120
C197        C  0.28533608  0.14928385  0.66418980     0.25890
C198        C  0.25852990  0.14220573  0.63333552    -0.22220
C199        C  0.23071864  0.15919428  0.61476313     0.20800
C200        C  0.22974565  0.18288479  0.62700976     0.25830
C201        C  0.25537900  0.18966403  0.65860134    -0.22160
C202        C  0.28345661  0.17263767  0.67681775     0.20730
F203        F  0.30909561  0.17852860  0.70717272    -0.12120
F204        F  0.31135147  0.13323176  0.68350809    -0.14480
F205        F  0.20219950  0.19890116  0.60886626    -0.14480
F206        F  0.20438913  0.15285284  0.58496689    -0.12120
C207        C  0.45242915  0.15164093  0.83382779     0.25890
C208        C  0.48672779  0.14386102  0.85966153    -0.22220
C209        C  0.02138699  0.16032559  0.87377745     0.20800
C210        C  0.02244558  0.18394352  0.86156887     0.25830
C211        C  0.48981250  0.19121082  0.83434632    -0.22160
C212        C  0.45433841  0.17495286  0.82107565     0.20730
F213        F  0.42193932  0.18150720  0.79507461    -0.12120
F214        F  0.41910300  0.13624766  0.81883486    -0.14480
F215        F  0.05728724  0.19926165  0.87471872    -0.14480
F216        F  0.05507503  0.15340817  0.89860034    -0.12120
C217        C  0.07790609  0.07048908  0.74309918     0.25890
C218        C  0.09728363  0.05932344  0.77376492    -0.22220
C219        C  0.13924786  0.04532410  0.77063225     0.20800
C220        C  0.16325682  0.04356559  0.73745420     0.25830
C221        C  0.14512705  0.05566430  0.70692917    -0.22160
C222        C  0.10160782  0.06868582  0.70993512     0.20730
F223        F  0.08225647  0.07987197  0.68087903    -0.12120
F224        F  0.03545534  0.08292314  0.74523040    -0.14480
F225        F  0.20576954  0.03117391  0.73582853    -0.14480
F226        F  0.15826540  0.03434999  0.79999734    -0.12120
C227        C  0.35055550  0.05943806  0.77422141     0.25890
C228        C  0.39828401  0.05013686  0.77595501    -0.22220
C229        C  0.41962207  0.04076214  0.74428561     0.20800
C230        C  0.39424252  0.04146130  0.71141890     0.25830
C231        C  0.34708194  0.05103771  0.70997173    -0.22160
C232        C  0.32513089  0.05973983  0.74151707     0.20730
F233        F  0.27983969  0.06968617  0.74022434    -0.12120
F234        F  0.32899829  0.06892894  0.80388312    -0.14480
F235        F  0.41580177  0.03306825  0.68102806    -0.14480
F236        F  0.46605793  0.03211118  0.74461243    -0.12120
C237        C  0.21897789  0.52543429  0.48876506     0.25890
C238        C  0.25756812  0.52401166  0.46363214    -0.22220
C239        C  0.29608514  0.50803432  0.47024549     0.20800
C240        C  0.29570427  0.49367023  0.50104997     0.25830
C241        C  0.25682349  0.49495160  0.52599215    -0.22160
C242        C  0.21858978  0.51110978  0.51949215     0.20730
F243        F  0.18083580  0.51338335  0.54312411    -0.12120
F244        F  0.18154776  0.54088426  0.48389934    -0.14480
F245        F  0.33307315  0.47821061  0.50602747    -0.14480
F246        F  0.33370878  0.50583449  0.44649537    -0.12120
C247        C  0.49809705  0.53669255  0.99287533     0.25890
C248        C  0.50195357  0.52611878  0.02701962    -0.22220
C249        C  0.50656989  0.50124762  0.02928907     0.20800
C250        C  0.50626745  0.48716729  0.99801461     0.25830
C251        C  0.50257123  0.49774832  0.96381378    -0.22160
C252        C  0.49899379  0.52268968  0.96157126     0.20730
F253        F  0.49485809  0.53352618  0.92906533    -0.12120
F254        F  0.49401998  0.56065761  0.98975272    -0.14480
F255        F  0.01004072  0.46319392  0.00122596    -0.14480
F256        F  0.00965675  0.49045092  0.06189136    -0.12120
C257        C  0.41096874  0.53715165  0.23613697     0.25890
C258        C  0.38663192  0.54273192  0.20358933    -0.22220
C259        C  0.33637884  0.54809801  0.20434105     0.20800
C260        C  0.31128589  0.54872392  0.23712180     0.25830
C261        C  0.33630337  0.54444142  0.26974164    -0.22160
C262        C  0.38608393  0.53835193  0.26899857     0.20730
F263        F  0.41098545  0.53433471  0.30014924    -0.12120
F264        F  0.45996827  0.53260934  0.23661242    -0.14480
F265        F  0.26353143  0.55555755  0.23722192    -0.14480
F266        F  0.31218780  0.55393274  0.17358366    -0.12120
C267        C  0.06970877  0.57720338  0.25203354     0.25890
C268        C  0.08297210  0.56401993  0.22113492    -0.22220
C269        C  0.12038346  0.54711736  0.22401595     0.20800
C270        C  0.14480131  0.54386906  0.25678927     0.25830
C271        C  0.13319248  0.55792303  0.28710061    -0.22160
C272        C  0.09486066  0.57429929  0.28455400     0.20730
F273        F  0.08223406  0.58783116  0.31343041    -0.12120
F274        F  0.03301417  0.59335681  0.25076342    -0.14480
F275        F  0.18159476  0.52778076  0.25819178    -0.14480
F276        F  0.13345977  0.53366626  0.19517303    -0.12120
C277        C  0.03005210  0.68298563  0.12943170     0.25890
C278        C  0.49226456  0.69191744  0.15122691    -0.22220
C279        C  0.45115441  0.67742942  0.15878451     0.20800
C280        C  0.44854136  0.65404461  0.14601169     0.25830
C281        C  0.48778917  0.64440096  0.12617481    -0.22160
C282        C  0.02818991  0.65926731  0.11738345     0.20730
F283        F  0.06661023  0.65064587  0.09824622    -0.12120
F284        F  0.07027099  0.69669271  0.12191407    -0.14480
F285        F  0.40902563  0.64037481  0.15542960    -0.14480
F286        F  0.41385396  0.68578961  0.17938160    -0.12120
C287        C  0.28137388  0.67016392  0.30412870     0.25890
C288        C  0.26173034  0.68803063  0.32635111    -0.22220
C289        C  0.24597887  0.68195273  0.36136188     0.20800
C290        C  0.24836996  0.65831426  0.37331939     0.25830
C291        C  0.26777639  0.64056121  0.35085835    -0.22160
C292        C  0.28468658  0.64681036  0.31633462     0.20730
F293        F  0.30194512  0.62998184  0.29338011    -0.12120
F294        F  0.29720729  0.67515986  0.27025399    -0.14480
F295        F  0.23159468  0.65277147  0.40672808    -0.14480
F296        F  0.22686272  0.69867813  0.38361657    -0.12120
C297        C  0.28927809  0.01049088  0.46671266     0.25890
C298        C  0.25062950  0.99394996  0.46058592    -0.22220
C299        C  0.21180139  0.99264431  0.48559155     0.20800
C300        C  0.21152209  0.00752305  0.51590995     0.25830
C301        C  0.25010742  0.02407026  0.52205541    -0.22160
C302        C  0.28902794  0.02537473  0.49713015     0.20730
F303        F  0.32647830  0.04138498  0.50175938    -0.12120
F304        F  0.32683152  0.01272676  0.44283050    -0.14480
F305        F  0.17393056  0.00523045  0.53975969    -0.14480
F306        F  0.17432116  0.97662461  0.48115398    -0.12120
C307        C  0.20512173  0.86148950  0.35919131     0.25890
C308        C  0.24908519  0.87406728  0.36766570    -0.22220
C309        C  0.29416340  0.86191570  0.36562921     0.20800
C310        C  0.29538772  0.83837540  0.35301409     0.25830
C311        C  0.25181660  0.82671464  0.34211812    -0.22160
C312        C  0.20667440  0.83814401  0.34612174     0.20730
F313        F  0.16415522  0.82700518  0.33581166    -0.12120
F314        F  0.16070014  0.87220870  0.36114498    -0.14480
F315        F  0.33943503  0.82754262  0.34903326    -0.14480
F316        F  0.33739851  0.87318613  0.37369559    -0.12120
C317        C  0.04498640  0.00982600  0.01370848     0.25890
C318        C  0.00300270  0.99630911  0.02340390    -0.22220
C319        C  0.46039352  0.99779285  0.00181693     0.20800
C320        C  0.45961460  0.01250326  0.97153246     0.25830
C321        C  0.00146769  0.02613733  0.96189404    -0.22160
C322        C  0.04422074  0.02456208  0.98334514     0.20730
F323        F  0.08540829  0.03739837  0.97519981    -0.12120
F324        F  0.08680001  0.00910356  0.03383850    -0.14480
F325        F  0.41774311  0.01309700  0.95144758    -0.14480
F326        F  0.41920866  0.98488935  0.00977045    -0.12120
C327        C  0.45778749  0.86820227  0.14874109     0.25890
C328        C  0.49762172  0.87761943  0.12884810    -0.22220
C329        C  0.03714867  0.86270324  0.12018152     0.20800
C330        C  0.03731565  0.83901719  0.13202925     0.25830
C331        C  0.49875053  0.83021851  0.15358330    -0.22160
C332        C  0.45874141  0.84485829  0.16136711     0.20730
F333        F  0.42078517  0.83662889  0.18180850    -0.12120
F334        F  0.41922089  0.88203837  0.15811842    -0.14480
F335        F  0.07648722  0.82514839  0.12434312    -0.14480
F336        F  0.07605002  0.87118032  0.10099852    -0.12120
C337        C  0.14173963  0.97606866  0.21628929     0.25890
C338        C  0.09210213  0.96911521  0.21548025    -0.22220
C339        C  0.06741148  0.96401827  0.24787456     0.20800
C340        C  0.09270229  0.96484149  0.28068131     0.25830
C341        C  0.14275101  0.97133423  0.28160246    -0.22160
C342        C  0.16680870  0.97755015  0.24921421     0.20730
F343        F  0.21552935  0.98336169  0.24904817    -0.12120
F344        F  0.16601352  0.98106573  0.18522424    -0.14480
F345        F  0.06876955  0.95850245  0.31134431    -0.14480
F346        F  0.01951683  0.95671530  0.24745541    -0.12120
C347        C  0.31850291  0.94879847  0.23532821     0.25890
C348        C  0.33603711  0.95969903  0.26736350    -0.22220
C349        C  0.37791531  0.97462745  0.26579202     0.20800
C350        C  0.40318184  0.97759669  0.23332343     0.25830
C351        C  0.38737811  0.96542933  0.20191794    -0.22160
C352        C  0.34409243  0.95154436  0.20305033     0.20730
F353        F  0.32706839  0.94013169  0.17303620    -0.12120
F354        F  0.27668443  0.93524037  0.23507683    -0.14480
F355        F  0.44491617  0.99120243  0.23331992    -0.14480
F356        F  0.39562127  0.98567941  0.29588930    -0.12120
O357        O  0.95409654  0.97926504  0.16527710    -0.55520
C358        C  0.56540138  0.96624515  0.18135947     0.77110
O359        O  0.54000212  0.91510720  0.12003037    -0.56680
C360        C  0.92038561  0.96389506  0.17056474     0.77080
C361        C  0.50286084  0.98145328  0.05645326     0.79470
Cd362      Cd  0.00012082  0.95472082  0.12328165     1.37460
O363        O  0.52479648  0.97641209  0.17686547    -0.55520
O364        O  0.04131980  0.97794627  0.07484049    -0.54330
C365        C  0.99971858  0.90348920  0.12150845     0.79430
O366        O  0.96388463  0.97186724  0.06835150    -0.56700
O367        O  0.57957959  0.95239516  0.15646208    -0.55150
O368        O  0.91967144  0.94590404  0.14980966    -0.55140
O369        O  0.46085481  0.91549990  0.11922242    -0.54310
O370        O  0.77622300  0.94004457  0.30383660    -0.55520
C371        C  0.67231003  0.96742478  0.31427367     0.77110
O372        O  0.78748487  0.91291888  0.37340557    -0.56680
C373        C  0.80945535  0.95589407  0.30162045     0.77080
C374        C  0.74980396  0.97870518  0.42779394     0.79470
Cd375      Cd  0.74563628  0.95096056  0.36207930     1.37460
O376        O  0.71129757  0.97935138  0.32022184    -0.55520
O377        O  0.78810616  0.97489917  0.40934775    -0.54330
C378        C  0.74833919  0.90037090  0.37208624     0.79430
O379        O  0.71035478  0.96901208  0.41636761    -0.56700
O380        O  0.66295587  0.95031575  0.33546356    -0.55150
O381        O  0.81712114  0.96850711  0.32967344    -0.55140
O382        O  0.70837761  0.91168638  0.37141206    -0.54310
O383        O  0.81526471  0.76171031  0.23139948    -0.55520
C384        C  0.65422964  0.76001380  0.25236408     0.77110
O385        O  0.75267742  0.73054183  0.33302405    -0.56680
C386        C  0.85376041  0.76180697  0.25102028     0.77080
C387        C  0.75359556  0.80390435  0.32276805     0.79470
Cd388      Cd  0.75449071  0.75991974  0.28312805     1.37470
O389        O  0.69224349  0.76193604  0.23260758    -0.55520
O390        O  0.74682123  0.80298660  0.28901725    -0.54330
C391        C  0.75764764  0.71264079  0.31247714     0.79430
O392        O  0.76141581  0.78443066  0.33873452    -0.56700
O393        O  0.66223729  0.75782620  0.28579038    -0.55150
O394        O  0.84650310  0.76167983  0.28465673    -0.55140
O395        O  0.75952568  0.71686640  0.27901789    -0.54310
O396        O  0.56505459  0.75908126  0.25674494    -0.55520
C397        C  0.90441135  0.76174598  0.23582173     0.77110
O398        O  0.01204873  0.78805159  0.15241599    -0.56680
C399        C  0.60341344  0.76032688  0.23727485     0.77080
C400        C  0.99691608  0.71547384  0.16860384     0.79470
Cd401      Cd  0.00392385  0.76088476  0.20469957     1.37460
O402        O  0.94273893  0.76159595  0.25567882    -0.55520
O403        O  0.98779666  0.71807518  0.20179751    -0.54330
C404        C  0.00130944  0.80654078  0.17023584     0.79430
O405        O  0.00993484  0.73396526  0.15150501    -0.56700
O406        O  0.91186200  0.76156498  0.20213872    -0.55150
O407        O  0.59588690  0.76190360  0.20378372    -0.55140
O408        O  0.99247022  0.80381917  0.20344364    -0.54310
O409        O  0.95663721  0.53741986  0.16611931    -0.55520
C410        C  0.55503435  0.56665469  0.18716532     0.77110
O411        O  0.97262460  0.55896506  0.06222472    -0.56680
C412        C  0.91621623  0.54768768  0.17121211     0.77080
C413        C  0.98907833  0.61833208  0.11997590     0.79470
Cd414      Cd  0.99029038  0.56767673  0.12659803     1.37460
O415        O  0.51411191  0.57695887  0.18722680    -0.55520
O416        O  0.95001284  0.60574730  0.12067451    -0.54330
C417        C  0.99946171  0.54078067  0.06018911     0.79430
O418        O  0.02926267  0.60722054  0.11698049    -0.56700
O419        O  0.56912475  0.55816406  0.15712515    -0.55150
O420        O  0.90569765  0.56441444  0.14981225    -0.55140
O421        O  0.02332237  0.53555828  0.08832831    -0.54310
O422        O  0.76653519  0.54209005  0.30784892    -0.55520
C423        C  0.66680930  0.55851642  0.31835670     0.77110
O424        O  0.71792721  0.54865893  0.41965752    -0.56680
C425        C  0.81084972  0.54860269  0.30403375     0.77080
C426        C  0.76574462  0.61512472  0.36073664     0.79470
Cd427      Cd  0.75167254  0.56434196  0.36263447     1.37470
O428        O  0.69451718  0.54120642  0.32537825    -0.55520
O429        O  0.79793878  0.60083875  0.34963310    -0.54330
C430        C  0.75650785  0.53841873  0.43014526     0.79430
O431        O  0.72978830  0.60609393  0.37776774    -0.56700
O432        O  0.67347027  0.57731345  0.33684125    -0.55150
O433        O  0.83057367  0.56022410  0.32989435    -0.55140
O434        O  0.79367099  0.54086460  0.41000041    -0.54310
O435        O  0.96790876  0.04214846  0.81338484    -0.55520
C436        C  0.57148301  0.06190968  0.80810013     0.77110
O437        O  0.03063571  0.10828647  0.87467005    -0.56680
C438        C  0.92839254  0.05335831  0.80888260     0.77080
C439        C  0.50075202  0.04118546  0.92902322     0.79470
Cd440      Cd  0.99889184  0.06749920  0.86209332     1.37460
O441        O  0.55766423  0.04406736  0.82641138    -0.55520
O442        O  0.96169132  0.04421917  0.91107831    -0.54330
C443        C  0.99005976  0.11807481  0.86718226     0.79430
O444        O  0.03909334  0.05134511  0.91682668    -0.56700
O445        O  0.55797192  0.08216687  0.81878421    -0.55150
O446        O  0.91808263  0.06876236  0.83265449    -0.55140
O447        O  0.95309447  0.10433533  0.86307793    -0.54310
O448        O  0.77949900  0.04188651  0.67200978    -0.55520
C449        C  0.67528118  0.05734350  0.67404387     0.77110
O450        O  0.71788204  0.10637329  0.61215472    -0.56680
C451        C  0.81989817  0.05294543  0.67608691     0.77080
C452        C  0.75029708  0.03918879  0.55494637     0.79470
Cd453      Cd  0.75058940  0.06565258  0.62230142     1.37470
O454        O  0.70758336  0.04201850  0.66710002    -0.55520
O455        O  0.71145962  0.04300208  0.57256937    -0.54330
C456        C  0.75675348  0.11667810  0.62362317     0.79430
O457        O  0.78931638  0.04857777  0.56755302    -0.56700
O458        O  0.67322856  0.07512596  0.65313214    -0.55150
O459        O  0.83247257  0.06753714  0.65170893    -0.55140
O460        O  0.79337731  0.10358210  0.62940141    -0.54310
O461        O  0.81205683  0.26144933  0.75705308    -0.55520
C462        C  0.65086321  0.25941636  0.73690764     0.77110
O463        O  0.75571242  0.28756225  0.65303042    -0.56680
C464        C  0.85012298  0.26165297  0.73717226     0.77080
C465        C  0.75218689  0.21399680  0.67368988     0.79470
Cd466      Cd  0.75032736  0.26050430  0.70589241     1.37470
O467        O  0.68903076  0.26090358  0.75681314    -0.55520
O468        O  0.75699319  0.21763558  0.70722654    -0.54330
C469        C  0.74718405  0.30614778  0.67139001     0.79580
O470        O  0.74514767  0.23216622  0.65424914    -0.56700
O471        O  0.65851914  0.25802647  0.70335864    -0.55150
O472        O  0.84223419  0.26186087  0.70355638    -0.55140
O473        O  0.74154663  0.30336947  0.70497577    -0.54310
O474        O  0.56192025  0.25862766  0.73197657    -0.55520
C475        C  0.90097208  0.26142962  0.75214474     0.77110
O476        O  0.00549540  0.23354173  0.83588588    -0.56680
C477        C  0.60016470  0.25953308  0.75182481     0.77080
C478        C  0.99890471  0.30723441  0.81499720     0.79470
Cd479      Cd  0.00068940  0.26057374  0.78310335     1.37470
O480        O  0.93896660  0.26091846  0.73217471    -0.55520
O481        O  0.99668829  0.30355761  0.78133764    -0.54330
C482        C  0.99426337  0.21500717  0.81783791     0.79430
O483        O  0.00313717  0.28901185  0.83478858    -0.56700
O484        O  0.90890411  0.26154273  0.78579229    -0.55150
O485        O  0.59258713  0.26076300  0.78536335    -0.55140
O486        O  0.98684729  0.21775959  0.78442030    -0.54310
O487        O  0.95172032  0.48303029  0.82630382    -0.55520
C488        C  0.56330476  0.46089628  0.80550794     0.77110
O489        O  0.98531646  0.46173750  0.93029317    -0.56680
C490        C  0.91537208  0.46913056  0.82088927     0.77080
C491        C  0.99459409  0.40453371  0.86478859     0.79470
Cd492      Cd  0.99593033  0.45537682  0.86428400     1.37460
O493        O  0.51722132  0.46022251  0.80265730    -0.55520
O494        O  0.95567683  0.41662011  0.86365062    -0.54330
C495        C  0.00146233  0.48297174  0.93060806     0.79430
O496        O  0.03460015  0.41577770  0.87104240    -0.56700
O497        O  0.58072023  0.45942802  0.83728459    -0.55150
O498        O  0.91124371  0.45153763  0.84203068    -0.55140
O499        O  0.01601780  0.49105366  0.90070900    -0.54310
O500        O  0.72080577  0.47700278  0.67456204    -0.55520
C501        C  0.82283791  0.46070499  0.68239773     0.77110
O502        O  0.78578384  0.41281933  0.61320305    -0.56680
C503        C  0.68094671  0.46526619  0.67684718     0.77080
C504        C  0.75620437  0.47997116  0.55893385     0.79470
Cd505      Cd  0.75393797  0.45326672  0.62553326     1.37460
O506        O  0.81176456  0.47787509  0.66201917    -0.55520
O507        O  0.71815160  0.47804853  0.57829304    -0.54330
C508        C  0.74487849  0.40269082  0.62024053     0.79430
O509        O  0.79352155  0.46868118  0.56967675    -0.56700
O510        O  0.80957386  0.44010112  0.67217600    -0.55150
O511        O  0.67147420  0.45059963  0.65159217    -0.55140
O512        O  0.70796869  0.41601639  0.62352366    -0.54310
C513        C  0.57255309  0.45730367  0.73883126     0.25890
C514        C  0.59359857  0.46309439  0.77269434    -0.22220
C515        C  0.64262178  0.47126452  0.77427694     0.20800
C516        C  0.67024917  0.47336703  0.74265540     0.25830
C517        C  0.64943226  0.46699567  0.70897349    -0.22160
C518        C  0.60026132  0.45913731  0.70741023     0.20730
F519        F  0.57910966  0.45278128  0.67547816    -0.12120
F520        F  0.52540487  0.44905839  0.73603499    -0.14480
F521        F  0.71812821  0.48049500  0.74531580    -0.14480
F522        F  0.66390092  0.47714678  0.80634480    -0.12120
C523        C  0.84590418  0.45461864  0.78206031     0.25890
C524        C  0.88473993  0.47100258  0.78798071    -0.22220
C525        C  0.90101740  0.48529577  0.75893132     0.20800
C526        C  0.88090081  0.48214210  0.72441098     0.25830
C527        C  0.84485435  0.46450281  0.71825693    -0.22160
C528        C  0.82647037  0.45128823  0.74752510     0.20730
F529        F  0.78922043  0.43516393  0.74274255    -0.12120
F530        F  0.82808756  0.44099301  0.80935396    -0.14480
F531        F  0.89848632  0.49543019  0.69667245    -0.14480
F532        F  0.93869573  0.50122337  0.76319467    -0.12120
C533        C  0.51874641  0.33809384  0.86274146     0.25890
C534        C  0.99602543  0.33167305  0.82979089    -0.22220
C535        C  0.97117631  0.34914604  0.81002523     0.20800
C536        C  0.96947895  0.37251552  0.82260006     0.25830
C537        C  0.99339332  0.37913861  0.85482505    -0.22160
C538        C  0.51814833  0.36182709  0.87486931     0.20730
F539        F  0.54141701  0.36786939  0.90611416    -0.12120
F540        F  0.54294464  0.32164292  0.88249445    -0.14480
F541        F  0.94639368  0.38904025  0.80219968    -0.14480
F542        F  0.94840348  0.34366193  0.77832113    -0.12120
C543        C  0.77163027  0.33658372  0.62479648     0.25890
C544        C  0.74341879  0.33000857  0.65505354    -0.22220
C545        C  0.71263388  0.34691804  0.67106070     0.20800
C546        C  0.71106887  0.37008099  0.65789253     0.25830
C547        C  0.74103330  0.37708998  0.62882196    -0.22160
C548        C  0.77106124  0.36011295  0.61213531     0.20730
F549        F  0.80034224  0.36639225  0.58405184    -0.12120
F550        F  0.80162167  0.32062118  0.60870606    -0.14480
F551        F  0.68267562  0.38612984  0.67539406    -0.14480
F552        F  0.68442759  0.34115328  0.70001071    -0.12120
C553        C  0.78533609  0.14928386  0.66418978     0.25890
C554        C  0.75852989  0.14220574  0.63333550    -0.22220
C555        C  0.73071862  0.15919429  0.61476313     0.20800
C556        C  0.72974563  0.18288480  0.62700976     0.25830
C557        C  0.75537900  0.18966404  0.65860133    -0.22160
C558        C  0.78345661  0.17263768  0.67681774     0.20730
F559        F  0.80909563  0.17852860  0.70717270    -0.12120
F560        F  0.81135149  0.13323177  0.68350806    -0.14480
F561        F  0.70219948  0.19890116  0.60886626    -0.14480
F562        F  0.70438910  0.15285285  0.58496689    -0.12120
C563        C  0.95242912  0.15164094  0.83382783     0.25890
C564        C  0.98672778  0.14386103  0.85966157    -0.22220
C565        C  0.52138698  0.16032559  0.87377743     0.20800
C566        C  0.52244557  0.18394352  0.86156885     0.25830
C567        C  0.98981249  0.19121083  0.83434634    -0.22160
C568        C  0.95433839  0.17495286  0.82107569     0.20730
F569        F  0.92193929  0.18150721  0.79507465    -0.12120
F570        F  0.91910296  0.13624767  0.81883492    -0.14480
F571        F  0.55728721  0.19926165  0.87471872    -0.14480
F572        F  0.55507501  0.15340817  0.89860033    -0.12120
C573        C  0.57790609  0.07048905  0.74309918     0.25890
C574        C  0.59728366  0.05932342  0.77376492    -0.22220
C575        C  0.63924793  0.04532411  0.77063227     0.20800
C576        C  0.66325690  0.04356561  0.73745422     0.25830
C577        C  0.64512710  0.05566430  0.70692918    -0.22160
C578        C  0.60160783  0.06868579  0.70993512     0.20730
F579        F  0.58225645  0.07987193  0.68087902    -0.12120
F580        F  0.53545531  0.08292308  0.74523039    -0.14480
F581        F  0.70576966  0.03117396  0.73582856    -0.14480
F582        F  0.65826550  0.03435002  0.79999737    -0.12120
C583        C  0.85055552  0.05943809  0.77422139     0.25890
C584        C  0.89828401  0.05013688  0.77595501    -0.22220
C585        C  0.91962207  0.04076214  0.74428561     0.20800
C586        C  0.89424253  0.04146131  0.71141889     0.25830
C587        C  0.84708197  0.05103774  0.70997171    -0.22160
C588        C  0.82513092  0.05973988  0.74151705     0.20730
F589        F  0.77983975  0.06968623  0.74022430    -0.12120
F590        F  0.82899831  0.06892900  0.80388309    -0.14480
F591        F  0.91580178  0.03306824  0.68102807    -0.14480
F592        F  0.96605790  0.03211116  0.74461245    -0.12120
C593        C  0.71897788  0.52543428  0.48876506     0.25890
C594        C  0.75756811  0.52401166  0.46363214    -0.22220
C595        C  0.79608514  0.50803432  0.47024549     0.20800
C596        C  0.79570427  0.49367023  0.50104997     0.25830
C597        C  0.75682349  0.49495160  0.52599215    -0.22160
C598        C  0.71858978  0.51110977  0.51949215     0.20730
F599        F  0.68083579  0.51338335  0.54312410    -0.12120
F600        F  0.68154775  0.54088425  0.48389933    -0.14480
F601        F  0.83307316  0.47821062  0.50602747    -0.14480
F602        F  0.83370879  0.50583449  0.44649537    -0.12120
C603        C  0.99809705  0.53669255  0.99287533     0.25890
C604        C  0.00195357  0.52611878  0.02701962    -0.22220
C605        C  0.00656989  0.50124761  0.02928907     0.20800
C606        C  0.00626745  0.48716729  0.99801461     0.25830
C607        C  0.00257122  0.49774831  0.96381378    -0.22160
C608        C  0.99899379  0.52268967  0.96157126     0.20730
F609        F  0.99485809  0.53352618  0.92906533    -0.12120
F610        F  0.99401998  0.56065761  0.98975272    -0.14480
F611        F  0.51004073  0.46319393  0.00122596    -0.14480
F612        F  0.50965676  0.49045092  0.06189136    -0.12120
C613        C  0.91096874  0.53715165  0.23613697     0.25890
C614        C  0.88663192  0.54273192  0.20358933    -0.22220
C615        C  0.83637885  0.54809801  0.20434105     0.20800
C616        C  0.81128589  0.54872391  0.23712180     0.25830
C617        C  0.83630337  0.54444142  0.26974164    -0.22160
C618        C  0.88608393  0.53835192  0.26899857     0.20730
F619        F  0.91098544  0.53433471  0.30014924    -0.12120
F620        F  0.95996827  0.53260934  0.23661242    -0.14480
F621        F  0.76353142  0.55555755  0.23722192    -0.14480
F622        F  0.81218780  0.55393273  0.17358366    -0.12120
C623        C  0.56970876  0.57720338  0.25203354     0.25890
C624        C  0.58297209  0.56401993  0.22113492    -0.22220
C625        C  0.62038345  0.54711735  0.22401594     0.20800
C626        C  0.64480131  0.54386906  0.25678927     0.25830
C627        C  0.63319248  0.55792302  0.28710061    -0.22160
C628        C  0.59486065  0.57429929  0.28455399     0.20730
F629        F  0.58223405  0.58783115  0.31343041    -0.12120
F630        F  0.53301416  0.59335681  0.25076342    -0.14480
F631        F  0.68159475  0.52778075  0.25819177    -0.14480
F632        F  0.63345976  0.53366626  0.19517303    -0.12120
C633        C  0.53005210  0.68298563  0.12943170     0.25890
C634        C  0.99226456  0.69191744  0.15122691    -0.22220
C635        C  0.95115441  0.67742942  0.15878451     0.20800
C636        C  0.94854136  0.65404461  0.14601169     0.25830
C637        C  0.98778917  0.64440096  0.12617481    -0.22160
C638        C  0.52818991  0.65926731  0.11738345     0.20730
F639        F  0.56661023  0.65064588  0.09824622    -0.12120
F640        F  0.57027098  0.69669271  0.12191407    -0.14480
F641        F  0.90902563  0.64037481  0.15542959    -0.14480
F642        F  0.91385395  0.68578961  0.17938159    -0.12120
C643        C  0.78137385  0.67016391  0.30412869     0.25890
C644        C  0.76173033  0.68803062  0.32635111    -0.22220
C645        C  0.74597887  0.68195273  0.36136188     0.20800
C646        C  0.74836996  0.65831426  0.37331939     0.25830
C647        C  0.76777637  0.64056121  0.35085834    -0.22160
C648        C  0.78468655  0.64681036  0.31633461     0.20730
F649        F  0.80194508  0.62998183  0.29338009    -0.12120
F650        F  0.79720725  0.67515986  0.27025398    -0.14480
F651        F  0.73159469  0.65277147  0.40672808    -0.14480
F652        F  0.72686274  0.69867812  0.38361658    -0.12120
C653        C  0.78927811  0.01049087  0.46671266     0.25890
C654        C  0.75062950  0.99394996  0.46058592    -0.22220
C655        C  0.71180137  0.99264432  0.48559154     0.20800
C656        C  0.71152208  0.00752307  0.51590993     0.25830
C657        C  0.75010743  0.02407027  0.52205540    -0.22160
C658        C  0.78902796  0.02537472  0.49713015     0.20730
F659        F  0.82647832  0.04138497  0.50175938    -0.12120
F660        F  0.82683154  0.01272674  0.44283051    -0.14480
F661        F  0.67393054  0.00523048  0.53975967    -0.14480
F662        F  0.67432114  0.97662463  0.48115396    -0.12120
C663        C  0.70512171  0.86148951  0.35919129     0.25890
C664        C  0.74908517  0.87406728  0.36766570    -0.22220
C665        C  0.79416338  0.86191570  0.36562924     0.20800
C666        C  0.79538770  0.83837540  0.35301412     0.25830
C667        C  0.75181659  0.82671464  0.34211813    -0.22160
C668        C  0.70667439  0.83814401  0.34612172     0.20730
F669        F  0.66415521  0.82700519  0.33581162    -0.12120
F670        F  0.66070013  0.87220871  0.36114493    -0.14480
F671        F  0.83943501  0.82754260  0.34903332    -0.14480
F672        F  0.83739849  0.87318612  0.37369564    -0.12120
C673        C  0.54498641  0.00982599  0.01370847     0.25890
C674        C  0.50300271  0.99630910  0.02340389    -0.22220
C675        C  0.96039352  0.99779284  0.00181692     0.20800
C676        C  0.95961460  0.01250325  0.97153245     0.25830
C677        C  0.50146770  0.02613732  0.96189404    -0.22160
C678        C  0.54422076  0.02456207  0.98334513     0.20730
F679        F  0.58540832  0.03739834  0.97519979    -0.12120
F680        F  0.58680003  0.00910353  0.03383848    -0.14480
F681        F  0.91774311  0.01309699  0.95144756    -0.14480
F682        F  0.91920867  0.98488933  0.00977044    -0.12120
C683        C  0.95778748  0.86820227  0.14874109     0.25890
C684        C  0.99762173  0.87761943  0.12884810    -0.22220
C685        C  0.53714866  0.86270323  0.12018151     0.20800
C686        C  0.53731564  0.83901719  0.13202925     0.25830
C687        C  0.99875053  0.83021852  0.15358330    -0.22160
C688        C  0.95874141  0.84485829  0.16136711     0.20730
F689        F  0.92078517  0.83662889  0.18180849    -0.12120
F690        F  0.91922088  0.88203837  0.15811841    -0.14480
F691        F  0.57648721  0.82514839  0.12434312    -0.14480
F692        F  0.57605002  0.87118031  0.10099851    -0.12120
C693        C  0.64173964  0.97606867  0.21628929     0.25890
C694        C  0.59210213  0.96911521  0.21548025    -0.22220
C695        C  0.56741148  0.96401826  0.24787455     0.20800
C696        C  0.59270229  0.96484149  0.28068131     0.25830
C697        C  0.64275101  0.97133423  0.28160246    -0.22160
C698        C  0.66680870  0.97755015  0.24921421     0.20730
F699        F  0.71552935  0.98336169  0.24904817    -0.12120
F700        F  0.66601353  0.98106573  0.18522424    -0.14480
F701        F  0.56876955  0.95850245  0.31134430    -0.14480
F702        F  0.51951684  0.95671529  0.24745540    -0.12120
C703        C  0.81850290  0.94879847  0.23532821     0.25890
C704        C  0.83603711  0.95969903  0.26736350    -0.22220
C705        C  0.87791530  0.97462745  0.26579202     0.20800
C706        C  0.90318183  0.97759670  0.23332342     0.25830
C707        C  0.88737810  0.96542934  0.20191794    -0.22160
C708        C  0.84409243  0.95154436  0.20305033     0.20730
F709        F  0.82706838  0.94013169  0.17303620    -0.12120
F710        F  0.77668442  0.93524037  0.23507683    -0.14480
F711        F  0.94491616  0.99120244  0.23331992    -0.14480
F712        F  0.89562127  0.98567941  0.29588930    -0.12120
loop_ 
_geom_bond_atom_site_label_1 
_geom_bond_atom_site_label_2 
_geom_bond_distance 
_geom_bond_site_symmetry_2 
_ccdc_geom_bond_type 
O1            C4   1.266       .  A
O1           Cd6   2.435       .  S
C2           O11   1.269       .  A
C2            O7   1.260       .  A
C2          C338   1.463       .  S
O3          C365   1.267   1_455  A
O3         Cd362   2.491       .  S
C4           O12   1.267       .  A
C4          C351   1.473       .  S
C5          O366   1.262   1_455  A
C5          O364   1.263       .  A
C5          C318   1.486       .  S
Cd6          O12   2.444       .  S
Cd6          O10   2.465       .  S
Cd6           O8   2.485       .  S
Cd6         O359   2.491       .  S
Cd6         O369   2.438       .  S
Cd6         O367   2.485       .  S
Cd6         O363   2.414       .  S
O7         Cd362   2.414       .  S
O8          C361   1.263       .  A
C9          O359   1.267       .  A
C9          O369   1.263       .  A
C9          C328   1.480       .  S
O10         C361   1.262       .  A
O11        Cd362   2.485       .  S
O13         C365   1.263       .  A
O13        Cd362   2.438   1_655  S
O14          C17   1.262       .  A
O14         Cd19   2.397       .  S
C15          O24   1.268       .  A
C15          O20   1.263       .  A
C15         C341   1.470       .  S
O16          C22   1.268       .  A
O16         Cd19   2.472       .  S
C17          O25   1.271       .  A
C17         C348   1.478       .  S
C18          O23   1.265       .  A
C18          O21   1.267       .  A
C18         C298   1.484       .  S
Cd19         O26   2.441       .  S
Cd19         O25   2.481       .  S
Cd19         O24   2.449       .  S
Cd19         O20   2.424       .  S
Cd19         O23   2.454       .  S
Cd19         O21   2.476       .  S
C22          O26   1.266       .  A
C22         C308   1.486       .  S
O27          C30   1.271       .  A
O27         Cd32   2.536       .  S
C28          O37   1.265       .  A
C28          O33   1.271       .  A
C28          C43   1.487       .  S
O29          C35   1.268       .  A
O29         Cd32   2.485       .  S
C30          O38   1.264       .  A
C30          C41   1.488       .  S
C31          O36   1.267       .  A
C31          O34   1.265       .  A
C31         C311   1.467       .  S
Cd32         O39   2.428       .  S
Cd32         O38   2.499       .  S
Cd32         O37   2.508       .  S
Cd32         O33   2.523       .  S
Cd32         O36   2.479       .  S
Cd32         O34   2.440       .  S
C35          O39   1.265       .  A
C35         C288   1.483       .  S
O40          C43   1.271       .  A
O40        Cd401   2.544       .  S
C41          O50   1.266       .  A
C41          O46   1.273       .  A
O42          C48   1.267       .  A
O42         Cd45   2.481       .  S
C43          O51   1.262       .  A
C44          O49   1.266       .  A
C44          O47   1.265       .  A
C44         C278   1.473       .  S
Cd45         O52   2.437       .  S
Cd45         O50   2.502       .  S
Cd45         O46   2.522       .  S
Cd45         O49   2.487       .  S
Cd45         O47   2.440       .  S
Cd45        O396   2.544       .  S
Cd45        O407   2.497       .  S
C48          O52   1.265       .  A
C48         C331   1.471       .  S
O51        Cd401   2.497       .  S
O53          C56   1.262       .  A
O53         Cd58   2.421       .  S
C54          O63   1.272       .  A
C54          O59   1.260       .  A
C54         C268   1.477       .  S
O55          C61   1.265       .  A
O55         Cd58   2.478       .  S
C56          O64   1.268       .  A
C56         C258   1.472       .  S
C57          O62   1.270       .  A
C57          O60   1.267       .  A
C57         C281   1.482       .  S
Cd58         O65   2.471       .  S
Cd58         O64   2.460       .  S
Cd58         O62   2.475       .  S
Cd58         O60   2.426       .  S
Cd58        O419   2.484       .  S
Cd58        O415   2.390       .  S
O59        Cd414   2.390   1_455  S
C61          O65   1.264       .  A
C61         C248   1.479       .  S
O63        Cd414   2.484   1_455  S
O66          C69   1.261       .  A
O66         Cd71   2.419       .  S
C67          O76   1.267       .  A
C67          O72   1.265       .  A
C67         C271   1.473       .  S
O68          C74   1.263       .  A
O68         Cd71   2.469       .  S
C69          O77   1.270       .  A
C69         C261   1.469       .  S
C70          O75   1.266       .  A
C70          O73   1.264       .  A
C70         C291   1.477       .  S
Cd71         O78   2.485       .  S
Cd71         O77   2.479       .  S
Cd71         O76   2.448       .  S
Cd71         O72   2.432       .  S
Cd71         O75   2.490       .  S
Cd71         O73   2.440       .  S
C74          O78   1.264       .  A
C74         C238   1.486       .  S
O79          C82   1.263       .  A
O79         Cd84   2.435       .  S
C80          O89   1.263       .  A
C80          O85   1.266       .  A
C80         C218   1.463       .  S
O81          C87   1.269       .  A
O81         Cd84   2.478       .  S
C82          O90   1.267       .  A
C82         C228   1.476       .  S
C83         O444   1.266       .  A
C83         O442   1.264   1_455  A
C83         C321   1.487       .  S
Cd84         O91   2.430       .  S
Cd84         O90   2.449       .  S
Cd84         O88   2.483       .  S
Cd84         O86   2.455       .  S
Cd84        O445   2.413       .  S
Cd84        O441   2.468       .  S
O85        Cd440   2.468   1_455  S
O86         C439   1.264       .  A
C87          O91   1.266       .  A
C87         C208   1.480       .  S
O88         C439   1.266       .  A
O89        Cd440   2.413   1_455  S
O92          C95   1.261       .  A
O92         Cd97   2.416       .  S
C93         O102   1.269       .  A
C93          O98   1.264       .  A
C93         C221   1.474       .  S
O94         C100   1.268       .  A
O94         Cd97   2.495       .  S
C95         O103   1.268       .  A
C95         C231   1.460       .  S
C96         O101   1.264       .  A
C96          O99   1.263       .  A
C96         C301   1.483       .  S
Cd97        O104   2.425       .  S
Cd97        O103   2.474       .  S
Cd97        O102   2.459       .  S
Cd97         O98   2.424       .  S
Cd97        O101   2.485       .  S
Cd97         O99   2.465       .  S
C100        O104   1.264       .  A
C100        C198   1.477       .  S
O105        C108   1.272       .  A
O105       Cd110   2.527       .  S
C106        O115   1.264       .  A
C106        O111   1.272       .  A
C106        C121   1.485       .  S
O107        C113   1.268       .  A
O107       Cd110   2.489       .  S
C108        O116   1.264       .  A
C108        C119   1.487       .  S
C109        O114   1.269       .  A
C109        O112   1.265       .  A
C109        C201   1.478       .  S
Cd110       O117   2.423       .  S
Cd110       O116   2.497       .  S
Cd110       O115   2.496       .  S
Cd110       O111   2.522       .  S
Cd110       O114   2.487       .  S
Cd110       O112   2.418       .  S
C113        O117   1.265       .  A
C113        C188   1.478       .  S
O118        C121   1.271       .  A
O118       Cd479   2.529       .  S
C119        O128   1.265       .  A
C119        O124   1.273       .  A
O120        C126   1.268       .  A
O120       Cd123   2.487       .  S
C121        O129   1.263       .  A
C122        O127   1.269       .  A
C122        O125   1.265       .  A
C122        C178   1.479       .  S
Cd123       O130   2.430       .  S
Cd123       O128   2.496       .  S
Cd123       O124   2.521       .  S
Cd123       O127   2.490       .  S
Cd123       O125   2.420       .  S
Cd123       O474   2.529       .  S
Cd123       O485   2.496       .  S
C126        O130   1.265       .  A
C126        C211   1.476       .  S
O129       Cd479   2.496       .  S
O131        C134   1.265       .  A
O131       Cd136   2.429       .  S
C132        O141   1.272       .  A
C132        O137   1.255       .  A
C132        C158   1.476       .  S
O133        C139   1.265       .  A
O133       Cd136   2.490       .  S
C134        O142   1.268       .  A
C134        C168   1.479       .  S
C135        O140   1.269       .  A
C135        O138   1.265       .  A
C135        C181   1.472       .  S
Cd136       O143   2.465       .  S
Cd136       O142   2.447       .  S
Cd136       O140   2.487       .  S
Cd136       O138   2.422       .  S
Cd136       O497   2.521       .  S
Cd136       O493   2.375       .  S
O137       Cd492   2.375   1_455  S
C139        O143   1.263       .  A
C139        C251   1.482       .  S
O141       Cd492   2.521   1_455  S
O144        C147   1.263       .  A
O144       Cd149   2.432       .  S
C145        O154   1.263       .  A
C145        O150   1.267       .  A
C145        C171   1.469       .  S
O146        C152   1.269       .  A
O146       Cd149   2.484       .  S
C147        O155   1.268       .  A
C147        C161   1.473       .  S
C148        O153   1.267       .  A
C148        O151   1.264       .  A
C148        C241   1.487       .  S
Cd149       O156   2.422       .  S
Cd149       O155   2.445       .  S
Cd149       O154   2.418       .  S
Cd149       O150   2.472       .  S
Cd149       O153   2.490       .  S
Cd149       O151   2.450       .  S
C152        O156   1.265       .  A
C152        C191   1.477       .  S
C157        C158   1.412       .  A
C157        C162   1.393       .  A
C157        F164   1.359       .  S
C158        C159   1.403       .  A
C159        C160   1.399       .  A
C159        F166   1.358       .  S
C160        C161   1.412       .  A
C160        F165   1.358       .  S
C161        C162   1.401       .  A
C162        F163   1.358       .  S
C167        C168   1.406       .  A
C167        C172   1.394       .  A
C167        F174   1.358       .  S
C168        C169   1.415       .  A
C169        C170   1.400       .  A
C169        F176   1.358       .  S
C170        C171   1.400       .  A
C170        F175   1.358       .  S
C171        C172   1.407       .  A
C172        F173   1.359       .  S
C177        C182   1.405       .  A
C177        C534   1.410   1_455  A
C177        F184   1.357       .  S
C178        C179   1.406       .  A
C178        C533   1.410       .  A
C179        C180   1.393       .  A
C179        F186   1.359       .  S
C180        C181   1.404       .  A
C180        F185   1.359       .  S
C181        C538   1.404       .  A
C182        C537   1.404   1_455  A
C182        F183   1.357       .  S
C187        C188   1.408       .  A
C187        C192   1.405       .  A
C187        F194   1.357       .  S
C188        C189   1.405       .  A
C189        C190   1.393       .  A
C189        F196   1.359       .  S
C190        C191   1.407       .  A
C190        F195   1.359       .  S
C191        C192   1.406       .  A
C192        F193   1.357       .  S
C197        C198   1.407       .  A
C197        C202   1.393       .  A
C197        F204   1.359       .  S
C198        C199   1.407       .  A
C199        C200   1.405       .  A
C199        F206   1.357       .  S
C200        C201   1.409       .  A
C200        F205   1.358       .  S
C201        C202   1.406       .  A
C202        F203   1.359       .  S
C207        C208   1.409       .  A
C207        C212   1.395       .  A
C207        F214   1.358       .  S
C208        C565   1.408       .  A
C209        C210   1.404       .  A
C209        C564   1.408   1_455  A
C209        F216   1.357       .  S
C210        C567   1.407   1_455  A
C210        F215   1.358       .  S
C211        C212   1.404       .  A
C211        C566   1.407       .  A
C212        F213   1.359       .  S
C217        C218   1.405       .  A
C217        C222   1.394       .  A
C217        F224   1.359       .  S
C218        C219   1.399       .  A
C219        C220   1.398       .  A
C219        F226   1.358       .  S
C220        C221   1.414       .  A
C220        F225   1.358       .  S
C221        C222   1.403       .  A
C222        F223   1.358       .  S
C227        C228   1.406       .  A
C227        C232   1.394       .  A
C227        F234   1.358       .  S
C228        C229   1.414       .  A
C229        C230   1.399       .  A
C229        F236   1.358       .  S
C230        C231   1.397       .  A
C230        F235   1.357       .  S
C231        C232   1.404       .  A
C232        F233   1.359       .  S
C237        C238   1.408       .  A
C237        C242   1.398       .  A
C237        F244   1.358       .  S
C238        C239   1.409       .  A
C239        C240   1.402       .  A
C239        F246   1.358       .  S
C240        C241   1.408       .  A
C240        F245   1.358       .  S
C241        C242   1.410       .  A
C242        F243   1.358       .  S
C247        C248   1.405   1_556  A
C247        C252   1.400       .  A
C247        F254   1.358       .  S
C248        C249   1.407       .  A
C249        C250   1.401   1_554  A
C249        F612   1.358       .  S
C250        C251   1.407       .  A
C250        F611   1.358   1_556  S
C251        C252   1.409       .  A
C252        F253   1.358       .  S
F255        C606   1.358   1_554  S
F256        C605   1.358       .  S
C257        C258   1.413       .  A
C257        C262   1.397       .  A
C257        F264   1.358       .  S
C258        C259   1.402       .  A
C259        C260   1.396       .  A
C259        F266   1.358       .  S
C260        C261   1.409       .  A
C260        F265   1.358       .  S
C261        C262   1.399       .  A
C262        F263   1.358       .  S
C267        C268   1.412       .  A
C267        C272   1.395       .  A
C267        F274   1.358       .  S
C268        C269   1.404       .  A
C269        C270   1.396       .  A
C269        F276   1.358       .  S
C270        C271   1.410       .  A
C270        F275   1.358       .  S
C271        C272   1.402       .  A
C272        F273   1.358       .  S
C277        C282   1.403       .  A
C277        C634   1.405   1_455  A
C277        F284   1.358       .  S
C278        C279   1.402       .  A
C278        C633   1.405       .  A
C279        C280   1.395       .  A
C279        F286   1.358       .  S
C280        C281   1.410       .  A
C280        F285   1.358       .  S
C281        C638   1.409       .  A
C282        C637   1.409   1_455  A
C282        F283   1.358       .  S
C287        C288   1.408       .  A
C287        C292   1.394       .  A
C287        F294   1.358       .  S
C288        C289   1.410       .  A
C289        C290   1.404       .  A
C289        F296   1.358       .  S
C290        C291   1.406       .  A
C290        F295   1.357       .  S
C291        C292   1.406       .  A
C292        F293   1.359       .  S
C297        C298   1.409   1_545  A
C297        C302   1.401       .  A
C297        F304   1.358       .  S
C298        C299   1.408       .  A
C299        C300   1.398   1_565  A
C299        F306   1.358       .  S
C300        C301   1.408       .  A
C300        F305   1.358       .  S
C301        C302   1.408       .  A
C302        F303   1.358       .  S
C307        C308   1.412       .  A
C307        C312   1.397       .  A
C307        F314   1.358       .  S
C308        C309   1.412       .  A
C309        C310   1.402       .  A
C309        F316   1.358       .  S
C310        C311   1.401       .  A
C310        F315   1.358       .  S
C311        C312   1.400       .  A
C312        F313   1.358       .  S
C317        C318   1.409   1_545  A
C317        C322   1.401   1_554  A
C317        F324   1.358       .  S
C318        C675   1.408   1_455  A
C319        C320   1.398   1_564  A
C319        C674   1.408       .  A
C319        F326   1.358       .  S
C320        C677   1.409       .  A
C320        F325   1.358       .  S
C321        C322   1.409       .  A
C321        C676   1.409   1_455  A
C322        F323   1.358       .  S
C327        C328   1.410       .  A
C327        C332   1.395       .  A
C327        F334   1.358       .  S
C328        C685   1.408       .  A
C329        C330   1.403       .  A
C329        C684   1.408   1_455  A
C329        F336   1.357       .  S
C330        C687   1.405   1_455  A
C330        F335   1.358       .  S
C331        C332   1.402       .  A
C331        C686   1.405       .  A
C332        F333   1.358       .  S
C337        C338   1.398       .  A
C337        C342   1.397       .  A
C337        F344   1.358       .  S
C338        C339   1.406       .  A
C339        C340   1.395       .  A
C339        F346   1.358       .  S
C340        C341   1.402       .  A
C340        F345   1.358       .  S
C341        C342   1.412       .  A
C342        F343   1.358       .  S
C347        C348   1.412       .  A
C347        C352   1.394       .  A
C347        F354   1.358       .  S
C348        C349   1.405       .  A
C349        C350   1.397       .  A
C349        F356   1.358       .  S
C350        C351   1.410       .  A
C350        F355   1.358       .  S
C351        C352   1.402       .  A
C352        F353   1.358       .  S
O357        C360   1.266       .  A
O357       Cd362   2.435   1_655  S
C358        O367   1.269       .  A
C358        O363   1.260       .  A
C358        C694   1.463       .  S
C360        O368   1.267       .  A
C360        C707   1.473       .  S
C361        C674   1.486       .  S
Cd362       O368   2.444   1_455  S
Cd362       O366   2.465   1_455  S
Cd362       O364   2.485       .  S
C365        C684   1.480       .  S
O370        C373   1.262       .  A
O370       Cd375   2.397       .  S
C371        O380   1.268       .  A
C371        O376   1.263       .  A
C371        C697   1.470       .  S
O372        C378   1.268       .  A
O372       Cd375   2.472       .  S
C373        O381   1.271       .  A
C373        C704   1.478       .  S
C374        O379   1.265       .  A
C374        O377   1.267       .  A
C374        C654   1.484       .  S
Cd375       O382   2.441       .  S
Cd375       O381   2.481       .  S
Cd375       O380   2.449       .  S
Cd375       O376   2.424       .  S
Cd375       O379   2.454       .  S
Cd375       O377   2.476       .  S
C378        O382   1.266       .  A
C378        C664   1.486       .  S
O383        C386   1.271       .  A
O383       Cd388   2.536       .  S
C384        O393   1.265       .  A
C384        O389   1.271       .  A
C384        C399   1.487       .  S
O385        C391   1.268       .  A
O385       Cd388   2.485       .  S
C386        O394   1.264       .  A
C386        C397   1.488       .  S
C387        O392   1.267       .  A
C387        O390   1.265       .  A
C387        C667   1.467       .  S
Cd388       O395   2.428       .  S
Cd388       O394   2.499       .  S
Cd388       O393   2.508       .  S
Cd388       O389   2.523       .  S
Cd388       O392   2.479       .  S
Cd388       O390   2.440       .  S
C391        O395   1.265       .  A
C391        C644   1.483       .  S
O396        C399   1.271       .  A
C397        O406   1.266       .  A
C397        O402   1.273       .  A
O398        C404   1.267       .  A
O398       Cd401   2.481       .  S
C399        O407   1.262       .  A
C400        O405   1.266   1_655  A
C400        O403   1.265       .  A
C400        C634   1.473       .  S
Cd401       O408   2.437   1_455  S
Cd401       O406   2.502   1_455  S
Cd401       O402   2.522   1_455  S
Cd401       O405   2.487       .  S
Cd401       O403   2.440   1_455  S
C404        O408   1.265   1_455  A
C404        C687   1.471   1_455  S
O409        C412   1.262       .  A
O409       Cd414   2.421       .  S
C410        O419   1.272       .  A
C410        O415   1.260       .  A
C410        C624   1.477       .  S
O411        C417   1.265       .  A
O411       Cd414   2.478       .  S
C412        O420   1.268       .  A
C412        C614   1.472       .  S
C413        O418   1.270   1_655  A
C413        O416   1.267       .  A
C413        C637   1.482       .  S
Cd414       O421   2.471   1_655  S
Cd414       O420   2.460       .  S
Cd414       O418   2.475   1_655  S
Cd414       O416   2.426       .  S
C417        O421   1.264   1_655  A
C417        C604   1.479   1_655  S
O422        C425   1.261       .  A
O422       Cd427   2.419       .  S
C423        O432   1.267       .  A
C423        O428   1.265       .  A
C423        C627   1.473       .  S
O424        C430   1.263       .  A
O424       Cd427   2.469       .  S
C425        O433   1.270       .  A
C425        C617   1.469       .  S
C426        O431   1.266       .  A
C426        O429   1.264       .  A
C426        C647   1.477       .  S
Cd427       O434   2.485       .  S
Cd427       O433   2.479       .  S
Cd427       O432   2.448       .  S
Cd427       O428   2.432       .  S
Cd427       O431   2.490       .  S
Cd427       O429   2.440       .  S
C430        O434   1.264       .  A
C430        C594   1.486       .  S
O435        C438   1.263       .  A
O435       Cd440   2.435       .  S
C436        O445   1.263       .  A
C436        O441   1.266       .  A
C436        C574   1.463       .  S
O437        C443   1.269   1_455  A
O437       Cd440   2.478   1_455  S
C438        O446   1.267       .  A
C438        C584   1.476       .  S
C439        C677   1.487       .  S
Cd440       O447   2.430       .  S
Cd440       O446   2.449       .  S
Cd440       O444   2.483   1_655  S
Cd440       O442   2.455       .  S
C443        O447   1.266       .  A
C443        C564   1.480       .  S
O448        C451   1.261       .  A
O448       Cd453   2.416       .  S
C449        O458   1.269       .  A
C449        O454   1.264       .  A
C449        C577   1.474       .  S
O450        C456   1.268       .  A
O450       Cd453   2.495       .  S
C451        O459   1.268       .  A
C451        C587   1.460       .  S
C452        O457   1.264       .  A
C452        O455   1.263       .  A
C452        C657   1.483       .  S
Cd453       O460   2.425       .  S
Cd453       O459   2.474       .  S
Cd453       O458   2.459       .  S
Cd453       O454   2.424       .  S
Cd453       O457   2.485       .  S
Cd453       O455   2.465       .  S
C456        O460   1.264       .  A
C456        C554   1.477       .  S
O461        C464   1.272       .  A
O461       Cd466   2.527       .  S
C462        O471   1.264       .  A
C462        O467   1.272       .  A
C462        C477   1.485       .  S
O463        C469   1.268       .  A
O463       Cd466   2.489       .  S
C464        O472   1.264       .  A
C464        C475   1.487       .  S
C465        O470   1.269       .  A
C465        O468   1.265       .  A
C465        C557   1.478       .  S
Cd466       O473   2.423       .  S
Cd466       O472   2.497       .  S
Cd466       O471   2.496       .  S
Cd466       O467   2.522       .  S
Cd466       O470   2.487       .  S
Cd466       O468   2.418       .  S
C469        O473   1.265       .  A
C469        C544   1.478       .  S
O474        C477   1.271       .  A
C475        O484   1.265       .  A
C475        O480   1.273       .  A
O476        C482   1.268   1_455  A
O476       Cd479   2.487       .  S
C477        O485   1.263       .  A
C478        O483   1.269   1_655  A
C478        O481   1.265       .  A
C478        C534   1.479       .  S
Cd479       O486   2.430   1_455  S
Cd479       O484   2.496   1_455  S
Cd479       O480   2.521   1_455  S
Cd479       O483   2.490       .  S
Cd479       O481   2.420   1_455  S
C482        O486   1.265       .  A
C482        C567   1.476       .  S
O487        C490   1.265       .  A
O487       Cd492   2.429       .  S
C488        O497   1.272       .  A
C488        O493   1.255       .  A
C488        C514   1.476       .  S
O489        C495   1.265   1_655  A
O489       Cd492   2.490       .  S
C490        O498   1.268       .  A
C490        C524   1.479       .  S
C491        O496   1.269   1_655  A
C491        O494   1.265       .  A
C491        C537   1.472       .  S
Cd492       O499   2.465   1_655  S
Cd492       O498   2.447       .  S
Cd492       O496   2.487   1_655  S
Cd492       O494   2.422       .  S
C495        O499   1.263       .  A
C495        C607   1.482       .  S
O500        C503   1.263       .  A
O500       Cd505   2.432       .  S
C501        O510   1.263       .  A
C501        O506   1.267       .  A
C501        C527   1.469       .  S
O502        C508   1.269       .  A
O502       Cd505   2.484       .  S
C503        O511   1.268       .  A
C503        C517   1.473       .  S
C504        O509   1.267       .  A
C504        O507   1.264       .  A
C504        C597   1.487       .  S
Cd505       O512   2.422       .  S
Cd505       O511   2.445       .  S
Cd505       O510   2.418       .  S
Cd505       O506   2.472       .  S
Cd505       O509   2.490       .  S
Cd505       O507   2.450       .  S
C508        O512   1.265       .  A
C508        C547   1.477       .  S
C513        C514   1.412       .  A
C513        C518   1.393       .  A
C513        F520   1.359       .  S
C514        C515   1.403       .  A
C515        C516   1.399       .  A
C515        F522   1.358       .  S
C516        C517   1.412       .  A
C516        F521   1.358       .  S
C517        C518   1.401       .  A
C518        F519   1.358       .  S
C523        C524   1.406       .  A
C523        C528   1.394       .  A
C523        F530   1.358       .  S
C524        C525   1.415       .  A
C525        C526   1.400       .  A
C525        F532   1.358       .  S
C526        C527   1.400       .  A
C526        F531   1.358       .  S
C527        C528   1.407       .  A
C528        F529   1.359       .  S
C533        C538   1.405       .  A
C533        F540   1.357       .  S
C534        C535   1.406       .  A
C535        C536   1.393       .  A
C535        F542   1.359       .  S
C536        C537   1.404       .  A
C536        F541   1.359       .  S
C538        F539   1.357       .  S
C543        C544   1.408       .  A
C543        C548   1.405       .  A
C543        F550   1.357       .  S
C544        C545   1.405       .  A
C545        C546   1.393       .  A
C545        F552   1.359       .  S
C546        C547   1.407       .  A
C546        F551   1.359       .  S
C547        C548   1.406       .  A
C548        F549   1.357       .  S
C553        C554   1.407       .  A
C553        C558   1.393       .  A
C553        F560   1.359       .  S
C554        C555   1.407       .  A
C555        C556   1.405       .  A
C555        F562   1.357       .  S
C556        C557   1.409       .  A
C556        F561   1.358       .  S
C557        C558   1.406       .  A
C558        F559   1.359       .  S
C563        C564   1.409       .  A
C563        C568   1.395       .  A
C563        F570   1.358       .  S
C565        C566   1.404       .  A
C565        F572   1.357       .  S
C566        F571   1.358       .  S
C567        C568   1.404       .  A
C568        F569   1.359       .  S
C573        C574   1.405       .  A
C573        C578   1.394       .  A
C573        F580   1.359       .  S
C574        C575   1.399       .  A
C575        C576   1.398       .  A
C575        F582   1.358       .  S
C576        C577   1.414       .  A
C576        F581   1.358       .  S
C577        C578   1.403       .  A
C578        F579   1.358       .  S
C583        C584   1.406       .  A
C583        C588   1.394       .  A
C583        F590   1.358       .  S
C584        C585   1.414       .  A
C585        C586   1.399       .  A
C585        F592   1.358       .  S
C586        C587   1.397       .  A
C586        F591   1.357       .  S
C587        C588   1.404       .  A
C588        F589   1.359       .  S
C593        C594   1.408       .  A
C593        C598   1.398       .  A
C593        F600   1.358       .  S
C594        C595   1.409       .  A
C595        C596   1.402       .  A
C595        F602   1.358       .  S
C596        C597   1.408       .  A
C596        F601   1.358       .  S
C597        C598   1.410       .  A
C598        F599   1.358       .  S
C603        C604   1.405   1_656  A
C603        C608   1.400       .  A
C603        F610   1.358       .  S
C604        C605   1.407       .  A
C605        C606   1.401   1_554  A
C606        C607   1.407       .  A
C607        C608   1.409   1_455  A
C608        F609   1.358       .  S
C613        C614   1.413       .  A
C613        C618   1.397       .  A
C613        F620   1.358       .  S
C614        C615   1.402       .  A
C615        C616   1.396       .  A
C615        F622   1.358       .  S
C616        C617   1.409       .  A
C616        F621   1.358       .  S
C617        C618   1.399       .  A
C618        F619   1.358       .  S
C623        C624   1.412       .  A
C623        C628   1.395       .  A
C623        F630   1.358       .  S
C624        C625   1.404       .  A
C625        C626   1.396       .  A
C625        F632   1.358       .  S
C626        C627   1.410       .  A
C626        F631   1.358       .  S
C627        C628   1.402       .  A
C628        F629   1.358       .  S
C633        C638   1.403       .  A
C633        F640   1.358       .  S
C634        C635   1.402       .  A
C635        C636   1.395       .  A
C635        F642   1.358       .  S
C636        C637   1.410       .  A
C636        F641   1.358       .  S
C638        F639   1.358       .  S
C643        C644   1.408       .  A
C643        C648   1.394       .  A
C643        F650   1.358       .  S
C644        C645   1.410       .  A
C645        C646   1.404       .  A
C645        F652   1.358       .  S
C646        C647   1.406       .  A
C646        F651   1.357       .  S
C647        C648   1.406       .  A
C648        F649   1.359       .  S
C653        C654   1.409   1_545  A
C653        C658   1.401       .  A
C653        F660   1.358       .  S
C654        C655   1.408       .  A
C655        C656   1.398   1_565  A
C655        F662   1.358       .  S
C656        C657   1.408       .  A
C656        F661   1.358       .  S
C657        C658   1.408       .  A
C658        F659   1.358       .  S
C663        C664   1.412       .  A
C663        C668   1.397       .  A
C663        F670   1.358       .  S
C664        C665   1.412       .  A
C665        C666   1.402       .  A
C665        F672   1.358       .  S
C666        C667   1.401       .  A
C666        F671   1.358       .  S
C667        C668   1.400       .  A
C668        F669   1.358       .  S
C673        C674   1.409   1_545  A
C673        C678   1.401   1_554  A
C673        F680   1.358       .  S
C675        C676   1.398   1_564  A
C675        F682   1.358       .  S
C676        F681   1.358       .  S
C677        C678   1.409       .  A
C678        F679   1.358       .  S
C683        C684   1.410       .  A
C683        C688   1.395       .  A
C683        F690   1.358       .  S
C685        C686   1.403       .  A
C685        F692   1.357       .  S
C686        F691   1.358       .  S
C687        C688   1.402       .  A
C688        F689   1.358       .  S
C693        C694   1.398       .  A
C693        C698   1.397       .  A
C693        F700   1.358       .  S
C694        C695   1.406       .  A
C695        C696   1.395       .  A
C695        F702   1.358       .  S
C696        C697   1.402       .  A
C696        F701   1.358       .  S
C697        C698   1.412       .  A
C698        F699   1.358       .  S
C703        C704   1.412       .  A
C703        C708   1.394       .  A
C703        F710   1.358       .  S
C704        C705   1.405       .  A
C705        C706   1.397       .  A
C705        F712   1.358       .  S
C706        C707   1.410       .  A
C706        F711   1.358       .  S
C707        C708   1.402       .  A
C708        F709   1.358       .  S
