geometry optimzed in LAMMPS
_audit_creation_date              2020-12-01 
_audit_creation_method            'lammps2cif' 
_symmetry_space_group_name_H-M    'P1' 
_symmetry_Int_Tables_number       1 
_symmetry_cell_setting            triclinic 
loop_ 
_symmetry_equiv_pos_as_xyz 
  x,y,z 
_cell_length_a                    51.79398688 
_cell_length_b                    52.0979863013843 
_cell_length_c                    39.163774568084854 
_cell_angle_alpha                 89.63698699977763 
_cell_angle_beta                  89.73718527465499 
_cell_angle_gamma                 89.79668076450382 
loop_ 
_atom_site_label 
_atom_site_type_symbol 
_atom_site_fract_x 
_atom_site_fract_y 
_atom_site_fract_z 
_atom_site_charge 
O1          O  0.02837351  0.78046505  0.47727435    -0.72100
O2          O  0.97626679  0.83224499  0.47645695    -0.72300
O3          O  0.02810969  0.83152564  0.47931978    -0.72100
O4          O  0.97577350  0.78103464  0.47417083    -0.72100
O5          O  0.97349702  0.78054971  0.02642457    -0.72100
O6          O  0.02413809  0.83328610  0.02906320    -0.72100
O7          O  0.97198945  0.83160917  0.02582501    -0.72100
O8          O  0.02613842  0.78203783  0.02957368    -0.72300
V9          V  0.00208414  0.80614974  0.47789228     1.35200
V10         V  0.99900557  0.80677666  0.02667588     1.35200
C11         C  0.03743446  0.77197823  0.50512942     0.77200
C12         C  0.96440497  0.84057071  0.99748850     0.77200
C13         C  0.03596004  0.83955298  0.50778210     0.77100
C14         C  0.96421731  0.77326317  0.99827983     0.77100
O15         O  0.77040047  0.04272418  0.02333672    -0.72100
O16         O  0.82289062  0.99131400  0.02417680    -0.72300
O17         O  0.82172596  0.04297501  0.02209396    -0.72100
O18         O  0.77136502  0.99024661  0.02549021    -0.72100
O19         O  0.77215749  0.99015573  0.47824731    -0.72100
O20         O  0.82527255  0.04013176  0.48013448    -0.72100
O21         O  0.82339018  0.98853571  0.48080125    -0.72100
O22         O  0.77417326  0.04246114  0.47732215    -0.72300
V23         V  0.79644698  0.01676146  0.02271618     1.35200
V24         V  0.79855707  0.01530991  0.48022361     1.35200
C25         C  0.76560412  0.05264746  0.50432944     0.77200
C26         C  0.83161696  0.97998847  0.50899094     0.77200
C27         C  0.83242275  0.04975622  0.50808106     0.77100
C28         C  0.76394077  0.97998338  0.50562987     0.77100
O29         O  0.97264954  0.24939793  0.47331947    -0.72100
O30         O  0.02481297  0.19786743  0.47111145    -0.72300
O31         O  0.97308639  0.19818142  0.47515773    -0.72100
O32         O  0.02524126  0.24901840  0.46925894    -0.72100
O33         O  0.02615174  0.24951820  0.02134864    -0.72100
O34         O  0.97767305  0.19484835  0.02119612    -0.72100
O35         O  0.02939374  0.19861869  0.01835903    -0.72100
O36         O  0.97342174  0.24578035  0.02429839    -0.72300
V37         V  0.99897532  0.22378724  0.47326650     1.35200
V38         V  0.00159480  0.22242077  0.02026878     1.35200
C39         C  0.96302948  0.25657685  0.50145991     0.77200
C40         C  0.03598919  0.19069645  0.49819880     0.77200
C41         C  0.96661829  0.18868819  0.50370193     0.77100
C42         C  0.03529328  0.25807081  0.49596626     0.77100
O43         O  0.23024925  0.99016538  0.02868482    -0.72100
O44         O  0.17670011  0.04015153  0.02323039    -0.72300
O45         O  0.17876342  0.98871934  0.02662551    -0.72100
O46         O  0.22823789  0.04227746  0.02551605    -0.72100
O47         O  0.23006643  0.03844292  0.47262551    -0.72100
O48         O  0.17670782  0.98857485  0.47564089    -0.72100
O49         O  0.17844889  0.03998044  0.47256468    -0.72100
O50         O  0.22831693  0.98635257  0.47550903    -0.72300
V51         V  0.20365042  0.01532031  0.02494482     1.35200
V52         V  0.20352822  0.01334899  0.47514302     1.35200
C53         C  0.23675073  0.97772074  0.50359660     0.77200
C54         C  0.16905339  0.04908987  0.49978554     0.77200
C55         C  0.16802660  0.98047755  0.50393457     0.77100
C56         C  0.23762162  0.04921533  0.49968382     0.77100
C57         C  0.22252819  0.70621506  0.50546670     0.86200
C58         C  0.23231634  0.69246866  0.47333871    -0.54000
C59         C  0.25835779  0.68770655  0.47243789     0.09100
C60         C  0.27246646  0.69701041  0.50479918     0.20100
C61         C  0.23039461  0.69275391  0.03280276    -0.54800
C62         C  0.25604303  0.68716434  0.03307899     0.09200
C63         C  0.23951072  0.73017908  0.50874896    -0.54300
C64         C  0.26577034  0.72599043  0.50726101     0.09800
H65         H  0.21925182  0.68595341  0.45363843     0.14300
H66         H  0.29341633  0.69268607  0.50471392     0.00100
H67         H  0.21807040  0.68588128  0.05322865     0.14600
H68         H  0.23070827  0.74883502  0.51224239     0.14400
C69         C  0.30001741  0.79444301  0.00247361     0.86200
C70         C  0.31503924  0.78677540  0.03459116    -0.54000
C71         C  0.32375504  0.76197851  0.03529318     0.09100
C72         C  0.31504850  0.74620766  0.00393133     0.20100
C73         C  0.31605940  0.78375152  0.47248047    -0.54800
C74         C  0.32491495  0.75899317  0.47521611     0.09200
C75         C  0.27785786  0.77484505  0.00157598    -0.54300
C76         C  0.28509878  0.74948004  0.00271581     0.09800
H77         H  0.31985650  0.80047198  0.05435296     0.14300
H78         H  0.32151804  0.72598439  0.00437305     0.00100
H79         H  0.32120390  0.79620747  0.45119401     0.14600
H80         H  0.25797770  0.78041206  0.00045611     0.14400
O81         O  0.52770663  0.71338018  0.22013849    -0.72100
O82         O  0.47351300  0.71243064  0.28648205    -0.72300
O83         O  0.47549859  0.71190504  0.21775686    -0.72100
O84         O  0.52584808  0.71403101  0.28873618    -0.72100
O85         O  0.52588360  0.75566886  0.28535990    -0.72100
O86         O  0.47291733  0.75349957  0.21907032    -0.72100
O87         O  0.47372188  0.75405843  0.28734958    -0.72100
O88         O  0.52503986  0.75485495  0.21732735    -0.72300
V89         V  0.50059904  0.71369653  0.25328230     1.35200
V90         V  0.49936901  0.75368680  0.25230748     1.35200
C91         C  0.53597418  0.73431365  0.20775893     0.77200
C92         C  0.46421312  0.73313376  0.29810969     0.77200
C93         C  0.46526769  0.73247918  0.20686094     0.77100
C94         C  0.53520915  0.73530627  0.29796208     0.77100
C95         C  0.70337025  0.79457049  0.50330949     0.86200
C96         C  0.68526490  0.79111624  0.47269818    -0.54000
C97         C  0.67624002  0.76671877  0.46857831     0.09100
C98         C  0.68699573  0.74731006  0.49496972     0.20100
C99         C  0.68632486  0.78492482  0.03618707    -0.54800
C100        C  0.67751871  0.76023496  0.03315252     0.09200
C101        C  0.72483814  0.77459643  0.49730515    -0.54300
C102        C  0.71682840  0.74986064  0.49255012     0.09800
H103        H  0.67931364  0.80694552  0.45632249     0.14300
H104        H  0.68007803  0.72747259  0.49127891     0.00100
H105        H  0.68197469  0.79666208  0.05829881     0.14600
H106        H  0.74492279  0.77915984  0.49825765     0.14400
C107        C  0.77901052  0.70978817  0.99521350     0.86200
C108        C  0.76966275  0.69656321  0.02819527    -0.54000
C109        C  0.74376438  0.69152183  0.02929447     0.09100
C110        C  0.72928667  0.69994530  0.99692505     0.20100
C111        C  0.77029467  0.69043297  0.46233046    -0.54800
C112        C  0.74452816  0.68520030  0.46337710     0.09200
C113        C  0.76155833  0.73344416  0.99096132    -0.54300
C114        C  0.73543090  0.72893132  0.99357097     0.09800
H115        H  0.78278487  0.69060004  0.04831079     0.14300
H116        H  0.70845115  0.69523070  0.99767637     0.00100
H117        H  0.78251042  0.68109493  0.44369088     0.14600
H118        H  0.76994236  0.75222504  0.98705467     0.14400
C119        C  0.29808942  0.23377048  0.49860827     0.86200
C120        C  0.31214295  0.24304251  0.46619165    -0.54000
C121        C  0.32061676  0.26796689  0.46679266     0.09100
C122        C  0.31258789  0.28203495  0.49991531     0.20100
C123        C  0.32054155  0.24124471  0.02747047    -0.54800
C124        C  0.32798243  0.26639112  0.02732947     0.09200
C125        C  0.27580899  0.25328315  0.50265511    -0.54300
C126        C  0.28293700  0.27860205  0.50297298     0.09800
H127        H  0.31624164  0.23021336  0.44510931     0.14300
H128        H  0.31865343  0.30228401  0.50059833     0.00100
H129        H  0.32761353  0.22746507  0.04617002     0.14600
H130        H  0.25595302  0.24787338  0.50516301     0.14400
C131        C  0.22217580  0.31742751  0.00373563     0.86200
C132        C  0.22928445  0.33055237  0.03715544    -0.54000
C133        C  0.25469381  0.33668819  0.04014692     0.09100
C134        C  0.27146105  0.32837133  0.00922314     0.20100
C135        C  0.23132351  0.33748488  0.47542392    -0.54800
C136        C  0.25732373  0.34218089  0.47757324     0.09200
C137        C  0.24024872  0.29423333  0.00079572    -0.54300
C138        C  0.26329088  0.30014407  0.50496512     0.09800
H139        H  0.21486752  0.33662341  0.05569748     0.14300
H140        H  0.29214292  0.33301330  0.01205675     0.00100
H141        H  0.22020670  0.34565520  0.45480449     0.14600
H142        H  0.23256962  0.27549807  0.99486263     0.14400
O143        O  0.30375882  0.53917885  0.21910716    -0.72100
O144        O  0.30669795  0.48797106  0.28890788    -0.72300
O145        O  0.30370482  0.48729757  0.22044046    -0.72100
O146        O  0.30661725  0.54001216  0.28761529    -0.72100
O147        O  0.26476734  0.54002060  0.29091389    -0.72100
O148        O  0.26192135  0.48745457  0.22413570    -0.72100
O149        O  0.26489228  0.48830310  0.29235581    -0.72100
O150        O  0.26190523  0.53907232  0.22226102    -0.72300
V151        V  0.30440135  0.51362876  0.25412675     1.35200
V152        V  0.26420964  0.51374968  0.25738201     1.35200
C153        C  0.28230272  0.54770769  0.20856235     0.77200
C154        C  0.28624900  0.47895368  0.30201015     0.77200
C155        C  0.28225285  0.47829987  0.21087423     0.77100
C156        C  0.28610896  0.54926546  0.30036265     0.77100
O157        O  0.52265663  0.31355454  0.28487447    -0.72100
O158        O  0.47328413  0.31503545  0.21346911    -0.72300
O159        O  0.47054804  0.31258583  0.28197684    -0.72100
O160        O  0.52531359  0.31554510  0.21644624    -0.72100
O161        O  0.52492815  0.27409996  0.21326594    -0.72100
O162        O  0.47249832  0.27108085  0.28102783    -0.72100
O163        O  0.47289352  0.27332794  0.21305612    -0.72100
O164        O  0.52438726  0.27199448  0.28182615    -0.72300
V165        V  0.49796711  0.31340614  0.24916464     1.35200
V166        V  0.49871846  0.27344798  0.24730490     1.35200
C167        C  0.53207940  0.29255161  0.29539594     0.77200
C168        C  0.46427229  0.29442233  0.20168679     0.77200
C169        C  0.46211178  0.29116248  0.29271331     0.77100
C170        C  0.53445052  0.29524732  0.20343866     0.77100
C171        C  0.69988165  0.23736058  0.49540502     0.86200
C172        C  0.68180391  0.24576346  0.02808150    -0.54000
C173        C  0.67535173  0.27126357  0.02906077     0.09100
C174        C  0.68578390  0.28586572  0.49587800     0.20100
C175        C  0.68160625  0.24509849  0.46618970    -0.54800
C176        C  0.67431113  0.27019263  0.46610105     0.09200
C177        C  0.72227372  0.25653787  0.49185579    -0.54300
C178        C  0.71538015  0.28208511  0.49302964     0.09800
H179        H  0.67631801  0.23226617  0.04803490     0.14300
H180        H  0.67947023  0.30617262  0.49585104     0.00100
H181        H  0.67414842  0.23246553  0.44689561     0.14600
H182        H  0.73858587  0.24849305  0.98884092     0.14400
C183        C  0.77833511  0.32244839  0.49744316     0.86200
C184        C  0.77094961  0.33824180  0.46582084    -0.54000
C185        C  0.74529936  0.34397531  0.46318338     0.09100
C186        C  0.72882801  0.33277726  0.49260610     0.20100
C187        C  0.76621088  0.33618341  0.02693839    -0.54800
C188        C  0.74059974  0.34240936  0.02399499     0.09200
C189        C  0.76097686  0.29869327  0.49675929    -0.54300
C190        C  0.73501324  0.30349686  0.49363419     0.09800
H191        H  0.78522027  0.34545605  0.44777485     0.14300
H192        H  0.70811229  0.33788580  0.49070790     0.00100
H193        H  0.77738465  0.34363324  0.04787705     0.14600
H194        H  0.76919627  0.27965536  0.49930432     0.14400
O195        O  0.69116358  0.53948753  0.27826307    -0.72100
O196        O  0.68934218  0.49144495  0.20492464    -0.72300
O197        O  0.68953838  0.48796262  0.27384110    -0.72100
O198        O  0.69080005  0.54325542  0.20988642    -0.72100
O199        O  0.73269432  0.54224074  0.21006662    -0.72100
O200        O  0.73141139  0.48610518  0.27203792    -0.72100
O201        O  0.73118374  0.49095086  0.20388949    -0.72100
O202        O  0.73291516  0.53744246  0.27805332    -0.72300
V203        V  0.69097632  0.51545725  0.24166462     1.35200
V204        V  0.73119901  0.51417125  0.24101587     1.35200
C205        C  0.71242476  0.54687236  0.29055248     0.77200
C206        C  0.71010839  0.48317252  0.19161451     0.77200
C207        C  0.71033639  0.47775393  0.28401081     0.77100
C208        C  0.71202578  0.55262455  0.19980854     0.77100
C209        C  0.73101234  0.44215181  0.11573532    -0.11700
C210        C  0.71066382  0.42457019  0.11373985     0.14900
C211        C  0.68911495  0.42761390  0.13559101     0.01800
C212        C  0.68905607  0.44723706  0.16007137    -0.16000
C213        C  0.70996175  0.46427155  0.16310104    -0.10800
C214        C  0.73080364  0.46211303  0.13965989     0.08500
C215        C  0.71370085  0.40244453  0.09014595     0.09500
S216        S  0.66129888  0.40695605  0.13371755    -0.25200
H217        H  0.67275163  0.44884484  0.17736771     0.19800
S218        S  0.75707310  0.48491155  0.13909736    -0.30900
H219        H  0.74738999  0.43987069  0.09872139     0.10100
C220        C  0.71362924  0.40583137  0.05436721     0.03300
C221        C  0.72066879  0.38527180  0.03313298    -0.13200
C222        C  0.72805935  0.36142992  0.04694085    -0.08800
C223        C  0.72645692  0.35760364  0.08262280     0.06800
C224        C  0.71945961  0.37812190  0.10381760    -0.13900
S225        S  0.70530105  0.43657374  0.03582737    -0.30800
H226        H  0.72174576  0.38816841  0.00578371     0.11000
S227        S  0.73357944  0.32711241  0.10253353    -0.27900
H228        H  0.71931871  0.37534009  0.13126291     0.08200
H229        H  0.76917742  0.47612521  0.10912030     0.26700
H230        H  0.70773425  0.42920610  0.00145574     0.21500
H231        H  0.72705307  0.31207027  0.07418705     0.26800
H232        H  0.66395598  0.40050019  0.09907570     0.15600
C233        C  0.70723383  0.37841950  0.39288011    -0.11700
C234        C  0.72187814  0.40081702  0.38885558     0.14900
C235        C  0.74304718  0.40507337  0.41059365     0.01800
C236        C  0.74983146  0.38640094  0.43468773    -0.16000
C237        C  0.73593810  0.36337563  0.43795875    -0.10800
C238        C  0.71412258  0.35963988  0.41703874     0.08500
C239        C  0.71637282  0.41839519  0.35998157     0.09500
S240        S  0.76285950  0.43344773  0.40790963    -0.25200
H241        H  0.76625227  0.38988346  0.45105325     0.19800
S242        S  0.69532984  0.33079191  0.41825179    -0.30900
H243        H  0.69102750  0.37505753  0.37609710     0.10100
C244        C  0.73127937  0.41738405  0.32985879     0.03300
C245        C  0.72821591  0.43652754  0.30492474    -0.13200
C246        C  0.71046814  0.45666067  0.30941990    -0.08800
C247        C  0.69486289  0.45716424  0.33913302     0.06800
C248        C  0.69781900  0.43781083  0.36398344    -0.13900
S249        S  0.75469382  0.39202540  0.32364266    -0.30800
H250        H  0.74001703  0.43610947  0.28203653     0.11000
S251        S  0.67290890  0.48352129  0.34709405    -0.27900
H252        H  0.68660817  0.43842510  0.38736674     0.08200
H253        H  0.71650517  0.31455158  0.42450792     0.26700
H254        H  0.76440428  0.40088395  0.29212084     0.21500
H255        H  0.66618782  0.47649069  0.38070487     0.26800
H256        H  0.74324858  0.45027245  0.39709461     0.15600
C257        C  0.57383396  0.27232658  0.37065054    -0.11700
C258        C  0.59265159  0.29163135  0.37030953     0.14900
C259        C  0.59086093  0.31173561  0.34611139     0.01800
C260        C  0.57070971  0.31174742  0.32235452    -0.16000
C261        C  0.55202953  0.29222670  0.32235017    -0.10800
C262        C  0.55340047  0.27260744  0.34740299     0.08500
C263        C  0.61437259  0.28947311  0.39466628     0.09500
S264        S  0.61376704  0.33770797  0.34403710    -0.25200
H265        H  0.56982614  0.32696221  0.30338818     0.19800
S266        S  0.52926021  0.24795934  0.35194011    -0.30900
H267        H  0.57502618  0.25696421  0.38938160     0.10100
C268        C  0.61058426  0.29288117  0.42996241     0.03300
C269        C  0.63094693  0.28776387  0.45250574    -0.13200
C270        C  0.65523649  0.27971808  0.44065870    -0.08800
C271        C  0.65907514  0.27678580  0.40498608     0.06800
C272        C  0.63867087  0.28181065  0.38253062    -0.13900
S273        S  0.57957221  0.30308957  0.44637058    -0.30800
H274        H  0.62727648  0.28824882  0.47950936     0.11000
S275        S  0.68899297  0.26564581  0.38620169    -0.27900
H276        H  0.64151119  0.27896048  0.35537877     0.08200
H277        H  0.50829540  0.26426763  0.34443903     0.26700
H278        H  0.58610832  0.30222063  0.48116693     0.21500
H279        H  0.70520842  0.27126155  0.41373680     0.26800
H280        H  0.61995162  0.33762370  0.37895117     0.15600
C281        C  0.58977749  0.31643795  0.14388515    -0.11700
C282        C  0.59806737  0.29273174  0.13093029     0.14900
C283        C  0.58505642  0.27022680  0.14140622     0.01800
C284        C  0.56466721  0.27183436  0.16486942    -0.16000
C285        C  0.55597254  0.29554889  0.17776094    -0.10800
C286        C  0.56865835  0.31820018  0.16637420     0.08500
C287        C  0.62022223  0.29178632  0.10657260     0.09500
S288        S  0.59324649  0.23879126  0.12545368    -0.25200
H289        H  0.55532938  0.25418376  0.17277232     0.19800
S290        S  0.55901219  0.34997980  0.17901579    -0.30900
H291        H  0.59963283  0.33381276  0.13595067     0.10100
C292        C  0.61879358  0.30295038  0.07372622     0.03300
C293        C  0.63877569  0.29854085  0.05009765    -0.13200
C294        C  0.65959740  0.28222955  0.05778376    -0.08800
C295        C  0.66255825  0.27397954  0.09213102     0.06800
C296        C  0.64275404  0.27850649  0.11588538    -0.13900
S297        S  0.59051580  0.32076425  0.06057672    -0.30800
H298        H  0.63732319  0.30683150  0.02494570     0.11000
S299        S  0.69141998  0.25847406  0.10767793    -0.27900
H300        H  0.64464161  0.27109826  0.14168380     0.08200
H301        H  0.53338210  0.34667702  0.16810112     0.26700
H302        H  0.60126491  0.33106521  0.03045626     0.21500
H303        H  0.70787949  0.26878413  0.08249120     0.26800
H304        H  0.60025481  0.24702994  0.09244098     0.15600
C305        C  0.30536340  0.41924283  0.35363257    -0.11700
C306        C  0.28491862  0.41789322  0.37713012     0.14900
C307        C  0.26546860  0.43696863  0.37637402     0.01800
C308        C  0.26664938  0.45660160  0.35188317    -0.16000
C309        C  0.28686864  0.45793396  0.32789919    -0.10800
C310        C  0.30638061  0.43876006  0.32879158     0.08500
C311        C  0.28295449  0.39539043  0.40030815     0.09500
S312        S  0.23795179  0.43685985  0.40489397    -0.25200
H313        H  0.25150091  0.47100463  0.35155742     0.19800
S314        S  0.33191769  0.43682475  0.29751925    -0.30900
H315        H  0.32003201  0.40435206  0.35373009     0.10100
C316        C  0.26748722  0.37430949  0.39183241     0.03300
C317        C  0.26190441  0.35576883  0.41679554    -0.13200
C318        C  0.27064323  0.35819563  0.45069536    -0.08800
C319        C  0.28876447  0.37784223  0.45784994     0.06800
C320        C  0.29461148  0.39621644  0.43247164    -0.13900
S321        S  0.25353455  0.37189306  0.34977713    -0.30800
H322        H  0.24936161  0.33997914  0.41030604     0.11000
S323        S  0.30363689  0.38118520  0.49910551    -0.27900
H324        H  0.30704441  0.41225638  0.43825603     0.08200
H325        H  0.31562841  0.44172469  0.26953388     0.26700
H326        H  0.24094912  0.34830661  0.35504885     0.21500
H327        H  0.32011930  0.40170645  0.49077831     0.26800
H328        H  0.24952379  0.42362937  0.43216156     0.15600
C329        C  0.27756355  0.37019564  0.12089765    -0.11700
C330        C  0.27149888  0.39587038  0.11293662     0.14900
C331        C  0.26043231  0.40170472  0.08088012     0.01800
C332        C  0.25603422  0.38192328  0.05769616    -0.16000
C333        C  0.26244789  0.35633551  0.06528391    -0.10800
C334        C  0.27276817  0.35031128  0.09769264     0.08500
C335        C  0.27514772  0.41584103  0.13931492     0.09500
S336        S  0.25067491  0.43362626  0.06771525    -0.25200
H337        H  0.24704493  0.38648277  0.03343563     0.19800
S338        S  0.27812080  0.31782967  0.11242311    -0.30900
H339        H  0.28533818  0.36554152  0.14583354     0.10100
C340        C  0.25615360  0.42023941  0.16445742     0.03300
C341        C  0.25908948  0.44064645  0.18733954    -0.13200
C342        C  0.28055205  0.45711972  0.18555758    -0.08800
C343        C  0.29948214  0.45269351  0.15996625     0.06800
C344        C  0.29676756  0.43193684  0.13757587    -0.13900
S345        S  0.22773687  0.40026907  0.16668007    -0.30800
H346        H  0.24452253  0.44377043  0.20679285     0.11000
S347        S  0.32654717  0.47370873  0.15288942    -0.27900
H348        H  0.31109576  0.42890087  0.11774185     0.08200
H349        H  0.27443150  0.30502299  0.08143697     0.26700
H350        H  0.21528248  0.41357524  0.19323750     0.21500
H351        H  0.31201096  0.49638941  0.15685133     0.26800
H352        H  0.25292581  0.44640559  0.09892767     0.15600
C353        C  0.39102402  0.27288802  0.07517695    -0.11700
C354        C  0.38412951  0.29023687  0.10078277     0.14900
C355        C  0.35935718  0.30169129  0.10035130     0.01800
C356        C  0.34162233  0.29441776  0.07524104    -0.16000
C357        C  0.34805193  0.27583191  0.05092464    -0.10800
C358        C  0.37332747  0.26559537  0.05026202     0.08500
C359        C  0.40289074  0.29403328  0.12859290     0.09500
S360        S  0.34901812  0.32490519  0.13157215    -0.25200
H361        H  0.32254306  0.30283572  0.07502004     0.19800
S362        S  0.38371557  0.24426553  0.01675642    -0.30900
H363        H  0.41025674  0.26465494  0.07523580     0.10100
C364        C  0.40084648  0.27995220  0.15931131     0.03300
C365        C  0.42122933  0.28046862  0.18271685    -0.13200
C366        C  0.44358161  0.29482539  0.17603713    -0.08800
C367        C  0.44541852  0.30924400  0.14547009     0.06800
C368        C  0.42502452  0.30875571  0.12213658    -0.13900
S369        S  0.37278018  0.26041910  0.16797173    -0.30800
H370        H  0.41985684  0.26957358  0.20629662     0.11000
S371        S  0.47385470  0.32721689  0.13379576    -0.27900
H372        H  0.42683052  0.31907471  0.09813245     0.08200
H373        H  0.40756737  0.23731386  0.03120751     0.26700
H374        H  0.38060500  0.25139254  0.20024413     0.21500
H375        H  0.49163090  0.31006770  0.14868985     0.26800
H376        H  0.37375754  0.33349208  0.14047261     0.15600
C377        C  0.41140644  0.26632644  0.35621442    -0.11700
C378        C  0.39624934  0.28832105  0.36106997     0.14900
C379        C  0.40313429  0.31130759  0.34424157     0.01800
C380        C  0.42489868  0.31176026  0.32282398    -0.16000
C381        C  0.44008512  0.28965209  0.31740604    -0.10800
C382        C  0.43324770  0.26662823  0.33486304     0.08500
C383        C  0.37474719  0.28689263  0.38615234     0.09500
S384        S  0.38490266  0.34064403  0.34898485    -0.25200
H385        H  0.42970158  0.32953258  0.30980574     0.19800
S386        S  0.45229608  0.23754328  0.33152422    -0.30900
H387        H  0.40618472  0.24890067  0.36975373     0.10100
C388        C  0.35191351  0.27345317  0.37919166     0.03300
C389        C  0.33363608  0.26972972  0.40530798    -0.13200
C390        C  0.33802405  0.27820088  0.43895167    -0.08800
C391        C  0.36055017  0.29305482  0.44514713     0.06800
C392        C  0.37839937  0.29723816  0.41858631    -0.13900
S393        S  0.34640665  0.26046756  0.33720750    -0.30800
H394        H  0.31618518  0.25923304  0.39972349     0.11000
S395        S  0.36859474  0.30542006  0.48666180    -0.27900
H396        H  0.39609589  0.30757425  0.42340692     0.08200
H397        H  0.43939666  0.22326939  0.35694236     0.26700
H398        H  0.32309821  0.24790653  0.34500470     0.21500
H399        H  0.39136521  0.31843130  0.47753314     0.26800
H400        H  0.36092928  0.32899049  0.35550059     0.15600
C401        C  0.69554526  0.59438312  0.36208137    -0.11700
C402        C  0.71962175  0.60583133  0.36752324     0.14900
C403        C  0.74114854  0.59735179  0.34843011     0.01800
C404        C  0.73813615  0.57792118  0.32429199    -0.16000
C405        C  0.71394006  0.56668535  0.31794794    -0.10800
C406        C  0.69241395  0.57510121  0.33754190     0.08500
C407        C  0.72216645  0.62592014  0.39401770     0.09500
S408        S  0.77309382  0.61045923  0.35369547    -0.25200
H409        H  0.75496640  0.57191123  0.30984763     0.19800
S410        S  0.66069855  0.56153460  0.33354394    -0.30900
H411        H  0.67904760  0.60055009  0.37708841     0.10100
C412        C  0.71518344  0.65169687  0.38754385     0.03300
C413        C  0.72075832  0.67063509  0.41189462    -0.13200
C414        C  0.73387981  0.66432139  0.44206685    -0.08800
C415        C  0.74056233  0.63841216  0.44864033     0.06800
C416        C  0.73421871  0.61947505  0.42485021    -0.13900
S417        S  0.70119089  0.66068425  0.34705853    -0.30800
H418        H  0.71623990  0.69057570  0.40661827     0.11000
S419        S  0.75889939  0.62952690  0.48608849    -0.27900
H420        H  0.73987841  0.59971566  0.42933855     0.08200
H421        H  0.65751888  0.57117779  0.30016770     0.26700
H422        H  0.70296655  0.68738118  0.35156353     0.21500
H423        H  0.75660182  0.60387999  0.98487770     0.26800
H424        H  0.76519610  0.63545840  0.36216425     0.15600
C425        C  0.73110035  0.66073891  0.11576500    -0.11700
C426        C  0.71861927  0.63820022  0.10570436     0.14900
C427        C  0.71053802  0.63561839  0.07155988     0.01800
C428        C  0.71701358  0.65458123  0.04767238    -0.16000
C429        C  0.73180758  0.67591917  0.05694701    -0.10800
C430        C  0.73743820  0.67979974  0.09182563     0.08500
C431        C  0.71702519  0.61656385  0.13015775     0.09500
S432        S  0.69388603  0.60761443  0.05630387    -0.25200
H433        H  0.71183474  0.65173652  0.02121877     0.19800
S434        S  0.75248599  0.70860914  0.10728707    -0.30900
H435        H  0.73672236  0.66307449  0.14218267     0.10100
C436        C  0.73542062  0.59661087  0.12931231     0.03300
C437        C  0.73330554  0.57611852  0.15244836    -0.13200
C438        C  0.71307046  0.57502857  0.17641543    -0.08800
C439        C  0.69490803  0.59541613  0.17758176     0.06800
C440        C  0.69701683  0.61586092  0.15432230    -0.13900
S441        S  0.76177020  0.59738390  0.09890367    -0.30800
H442        H  0.74739186  0.56072258  0.15167885     0.11000
S443        S  0.66940329  0.59716139  0.20895389    -0.27900
H444        H  0.68307711  0.63141118  0.15515244     0.08200
H445        H  0.74311617  0.72465393  0.08104595     0.26700
H446        H  0.77125834  0.57256663  0.10582209     0.21500
H447        H  0.68475549  0.58834372  0.23619487     0.26800
H448        H  0.68182783  0.60124292  0.08740928     0.15600
C449        C  0.59742672  0.71756674  0.15717653    -0.11700
C450        C  0.60011743  0.73939168  0.13638979     0.14900
C451        C  0.58179271  0.75942072  0.13926407     0.01800
C452        C  0.56109015  0.75701060  0.16225794    -0.16000
C453        C  0.55820826  0.73517437  0.18326302    -0.10800
C454        C  0.57709531  0.71540158  0.18087058     0.08500
C455        C  0.62156880  0.74050479  0.11101682     0.09500
S456        S  0.58352060  0.78845896  0.11399253    -0.25200
H457        H  0.54710693  0.77248589  0.16376261     0.19800
S458        S  0.57725324  0.68739397  0.20808015    -0.30900
H459        H  0.61153728  0.70222600  0.15524965     0.10100
C460        C  0.64651704  0.74862219  0.11995743     0.03300
C461        C  0.66501146  0.75303934  0.09418251    -0.13200
C462        C  0.65934799  0.74910672  0.05943288    -0.08800
C463        C  0.63498546  0.73837519  0.05112991     0.06800
C464        C  0.61637872  0.73464183  0.07694390    -0.13900
S465        S  0.65425194  0.75498434  0.16396951    -0.30800
H466        H  0.68369662  0.76066872  0.10099786     0.11000
S467        S  0.62623899  0.73043657  0.00802163    -0.27900
H468        H  0.59728287  0.72784918  0.07054058     0.08200
H469        H  0.57308316  0.70128412  0.23830732     0.26700
H470        H  0.68090115  0.75860490  0.15887053     0.21500
H471        H  0.60176301  0.72001710  0.01506313     0.26800
H472        H  0.61055370  0.78925845  0.11118559     0.15600
C473        C  0.61328885  0.76713553  0.41835484    -0.11700
C474        C  0.61725027  0.74674999  0.39592740     0.14900
C475        C  0.64066734  0.73276569  0.39735711     0.01800
C476        C  0.65965545  0.73974019  0.42104978    -0.16000
C477        C  0.65574778  0.76033863  0.44347129    -0.10800
C478        C  0.63189922  0.77378760  0.44233763     0.08500
C479        C  0.59691684  0.74176269  0.37041420     0.09500
S480        S  0.64774842  0.70622571  0.36945274    -0.25200
H481        H  0.67763791  0.72905529  0.42195898     0.19800
S482        S  0.62278937  0.79826940  0.47224207    -0.30900
H483        H  0.59523988  0.77772951  0.41750858     0.10100
C484        C  0.57495489  0.72688465  0.37830838     0.03300
C485        C  0.55537338  0.72413649  0.35380382    -0.13200
C486        C  0.55708289  0.73664761  0.32201000    -0.08800
C487        C  0.57925621  0.75143767  0.31432037     0.06800
C488        C  0.59880584  0.75385736  0.33853444    -0.13900
S489        S  0.57175580  0.71191655  0.41981259    -0.30800
H490        H  0.53833728  0.71295726  0.35976709     0.11000
S491        S  0.58398168  0.76739534  0.27383657    -0.27900
H492        H  0.61558820  0.76546063  0.33260051     0.08200
H493        H  0.63447668  0.78632129  0.50049375     0.26700
H494        H  0.54709746  0.70146048  0.41457099     0.21500
H495        H  0.57383830  0.74718221  0.25467351     0.26800
H496        H  0.62227763  0.70031474  0.36039357     0.15600
C497        C  0.40309600  0.71613834  0.34899999    -0.11700
C498        C  0.40218252  0.73630055  0.37256236     0.14900
C499        C  0.42188405  0.75499258  0.37177456     0.01800
C500        C  0.44187166  0.75317638  0.34765815    -0.16000
C501        C  0.44275488  0.73324851  0.32365206    -0.10800
C502        C  0.42287020  0.71457594  0.32437961     0.08500
C503        C  0.38055834  0.73769845  0.39766109     0.09500
S504        S  0.42271354  0.78166767  0.40092380    -0.25200
H505        H  0.45687203  0.76762676  0.34757070     0.19800
S506        S  0.42070628  0.68914677  0.29357279    -0.30900
H507        H  0.38795175  0.70183517  0.34931551     0.10100
C508        C  0.35636812  0.74806531  0.38866277     0.03300
C509        C  0.33795417  0.75306220  0.41427872    -0.13200
C510        C  0.34312006  0.74807857  0.44899991    -0.08800
C511        C  0.36680059  0.73586103  0.45750227     0.06800
C512        C  0.38517153  0.73094892  0.43175679    -0.13900
S513        S  0.34968092  0.75666198  0.34483670    -0.30800
H514        H  0.31974297  0.76189355  0.40738906     0.11000
S515        S  0.37533964  0.72834870  0.50098025    -0.27900
H516        H  0.40383120  0.72295178  0.43834861     0.08200
H517        H  0.42704425  0.70488166  0.26543911     0.26700
H518        H  0.32477117  0.76665438  0.35047962     0.21500
H519        H  0.39900004  0.71644714  0.99181388     0.26800
H520        H  0.39585603  0.78479138  0.40406790     0.15600
C521        C  0.36513756  0.72457192  0.10002932    -0.11700
C522        C  0.38527954  0.74202537  0.10519331     0.14900
C523        C  0.38573500  0.76504796  0.08607033     0.01800
C524        C  0.36532549  0.77090857  0.06416911    -0.16000
C525        C  0.34442224  0.75405215  0.05982165    -0.10800
C526        C  0.34479797  0.73028422  0.07756341     0.08500
C527        C  0.40424833  0.73722246  0.13280869     0.09500
S528        S  0.41169029  0.78795632  0.08881074    -0.25200
H529        H  0.36609339  0.78871097  0.04977705     0.19800
S530        S  0.31978553  0.70674750  0.07370866    -0.30900
H531        H  0.36479452  0.70677735  0.11450456     0.10100
C532        C  0.40337959  0.75171413  0.16304915     0.03300
C533        C  0.42339477  0.74935519  0.18680398    -0.13200
C534        C  0.44424168  0.73254743  0.18134178    -0.08800
C535        C  0.44454510  0.71721463  0.15163703     0.06800
C536        C  0.42442497  0.71954937  0.12784884    -0.13900
S537        S  0.37674942  0.77335641  0.17131771    -0.30800
H538        H  0.42289133  0.76077588  0.20980658     0.11000
S539        S  0.47078578  0.69573879  0.14147591    -0.27900
H540        H  0.42513278  0.70843823  0.10456360     0.08200
H541        H  0.30005500  0.72462430  0.06747731     0.26700
H542        H  0.38533079  0.78210088  0.20320387     0.21500
H543        H  0.49033587  0.71196132  0.15356607     0.26800
H544        H  0.43115356  0.77001657  0.09661282     0.15600
C545        C  0.26929793  0.65388425  0.11804365    -0.11700
C546        C  0.27626081  0.62919675  0.10709242     0.14900
C547        C  0.27877252  0.62459512  0.07172046     0.01800
C548        C  0.27346665  0.64432818  0.04833256    -0.16000
C549        C  0.26633299  0.66897848  0.05910686    -0.10800
C550        C  0.26422056  0.67373857  0.09463015     0.08500
C551        C  0.27848211  0.60818290  0.13286581     0.09500
S552        S  0.28759533  0.59368393  0.05465953    -0.25200
H553        H  0.27330160  0.63981250  0.02150831     0.19800
S554        S  0.25390191  0.70415221  0.11212930    -0.30900
H555        H  0.26695752  0.65748460  0.14511019     0.10100
C556        C  0.29831598  0.60773943  0.15742421     0.03300
C557        C  0.29951315  0.58746205  0.18125556    -0.13200
C558        C  0.28114368  0.56764818  0.18133002    -0.08800
C559        C  0.26170444  0.56785181  0.15606288     0.06800
C560        C  0.26033949  0.58823059  0.13261553    -0.13900
S561        S  0.32242303  0.63270526  0.15798543    -0.30800
H562        H  0.31463857  0.58721645  0.20021679     0.11000
S563        S  0.23895855  0.54203371  0.15115051    -0.27900
H564        H  0.24522566  0.58833462  0.11356473     0.08200
H565        H  0.25681069  0.71926839  0.08261707     0.26700
H566        H  0.33591154  0.62367337  0.18677278     0.21500
H567        H  0.25672594  0.52243040  0.15921995     0.26800
H568        H  0.30289146  0.58594091  0.08246746     0.15600
C569        C  0.26842958  0.65429138  0.38721047    -0.11700
C570        C  0.28322232  0.63300964  0.39735980     0.14900
C571        C  0.29428038  0.63282381  0.43024635     0.01800
C572        C  0.28813487  0.65250903  0.45322726    -0.16000
C573        C  0.27056808  0.67210111  0.44458496    -0.10800
C574        C  0.26252013  0.67405011  0.41013006     0.08500
C575        C  0.28514717  0.61074529  0.37390754     0.09500
S576        S  0.31511377  0.60732208  0.44508428    -0.25200
H577        H  0.29653348  0.65188528  0.47833115     0.19800
S578        S  0.24560810  0.70168975  0.39347948    -0.30900
H579        H  0.26094148  0.65523377  0.36143571     0.10100
C580        C  0.26856034  0.58948433  0.37755263     0.03300
C581        C  0.26942515  0.56967074  0.35336256    -0.13200
C582        C  0.28672799  0.57045888  0.32561634    -0.08800
C583        C  0.30348444  0.59177316  0.32226316     0.06800
C584        C  0.30255304  0.61156249  0.34640361    -0.13900
S585        S  0.24580579  0.58792887  0.41260665    -0.30800
H586        H  0.25653625  0.55345593  0.35602349     0.11000
S587        S  0.32524537  0.59573149  0.28662687    -0.27900
H588        H  0.31507238  0.62804413  0.34330205     0.08200
H589        H  0.25572857  0.71902375  0.41733494     0.26700
H590        H  0.23548574  0.56375077  0.40473531     0.21500
H591        H  0.30755360  0.58684021  0.26233815     0.26800
H592        H  0.32448554  0.60011150  0.41280593     0.15600
C593        C  0.30391937  0.86737428  0.49946017    -0.11700
C594        C  0.28000914  0.87682389  0.00243065     0.14900
C595        C  0.26063844  0.85815952  0.99880906     0.01800
C596        C  0.26721917  0.83208020  0.99884373    -0.16000
C597        C  0.29309717  0.82349086  0.00169709    -0.10800
C598        C  0.31103064  0.84126241  0.49855725     0.08500
C599        C  0.27360230  0.90459143  0.00494275     0.09500
S600        S  0.22690723  0.86636647  0.99406423    -0.25200
H601        H  0.25141219  0.81901842  0.99602927     0.19800
S602        S  0.34510781  0.83345036  0.49637390    -0.30900
H603        H  0.31861872  0.88209111  0.49881493     0.10100
C604        C  0.26119204  0.91464143  0.03406018     0.03300
C605        C  0.25191826  0.93998831  0.03346139    -0.13200
C606        C  0.25277631  0.95388242  0.50490025    -0.08800
C607        C  0.26588852  0.94406491  0.47589914     0.06800
C608        C  0.27470816  0.91857944  0.47596316    -0.13900
S609        S  0.25627102  0.89483660  0.07154438    -0.30800
H610        H  0.24092050  0.94701106  0.05505469     0.11000
S611        S  0.27210415  0.96296294  0.43807349    -0.27900
H612        H  0.28353120  0.91082256  0.45308445     0.08200
H613        H  0.35447933  0.85867155  0.49341428     0.26700
H614        H  0.24508518  0.91396151  0.09210826     0.21500
H615        H  0.27582624  0.98604323  0.45586250     0.26800
H616        H  0.23082928  0.88978246  0.97682354     0.15600
C617        C  0.27526669  0.10983656  0.02553247    -0.11700
C618        C  0.27234271  0.12380020  0.49530484     0.14900
C619        C  0.26359531  0.11183294  0.46532650     0.01800
C620        C  0.25435709  0.08664705  0.46703011    -0.16000
C621        C  0.25370772  0.07283819  0.49804220    -0.10800
C622        C  0.26531211  0.08483881  0.02658126     0.08500
C623        C  0.27844419  0.15152833  0.49624601     0.09500
S624        S  0.26184773  0.12822953  0.42466773    -0.25200
H625        H  0.24626914  0.07836219  0.44415791     0.19800
S626        S  0.26769397  0.06773299  0.06658085    -0.30900
H627        H  0.28277294  0.11826011  0.04867778     0.10100
C628        C  0.25897756  0.16998817  0.50080455     0.03300
C629        C  0.26544799  0.19611453  0.50174511    -0.13200
C630        C  0.29121746  0.20473639  0.49752591    -0.08800
C631        C  0.31466872  0.18546737  0.99632406     0.06800
C632        C  0.30758458  0.15940041  0.99647039    -0.13900
S633        S  0.22571226  0.16011435  0.50578961    -0.30800
H634        H  0.24983722  0.20922773  0.50606181     0.11000
S635        S  0.34856662  0.19297517  0.99286203    -0.27900
H636        H  0.32224954  0.14456758  0.99537182     0.08200
H637        H  0.27322414  0.04392353  0.05135950     0.26700
H638        H  0.21471275  0.18481436  0.50696524     0.21500
H639        H  0.35821188  0.16790415  0.99721320     0.26800
H640        H  0.28190600  0.14570342  0.43046612     0.15600
C641        C  0.90556725  0.29860630  0.47630612    -0.11700
C642        C  0.88583510  0.28640824  0.99932370     0.14900
C643        C  0.89351611  0.26693815  0.02244734     0.01800
C644        C  0.91926286  0.25858768  0.02284061    -0.16000
C645        C  0.93851965  0.27151088  0.50268153    -0.10800
C646        C  0.93090794  0.28890748  0.47666890     0.08500
C647        C  0.85880547  0.29632544  0.99844358     0.09500
S648        S  0.87121198  0.25118522  0.05119369    -0.25200
H649        H  0.92459448  0.24316280  0.04015445     0.19800
S650        S  0.95264794  0.29979511  0.44361465    -0.30900
H651        H  0.89982528  0.31174894  0.45614571     0.10100
C652        C  0.84871347  0.31179508  0.02465151     0.03300
C653        C  0.82259806  0.31930942  0.02397283    -0.13200
C654        C  0.80746052  0.31571237  0.49757355    -0.08800
C655        C  0.81849626  0.29991963  0.47166146     0.06800
C656        C  0.84467567  0.29285016  0.47328193    -0.13900
S657        S  0.86931486  0.32223810  0.05896311    -0.30800
H658        H  0.81568125  0.33084160  0.04472016     0.11000
S659        S  0.79964436  0.28827164  0.43615900    -0.27900
H660        H  0.85273804  0.27994410  0.45444251     0.08200
H661        H  0.97482396  0.29910292  0.46423568     0.26700
H662        H  0.85105426  0.33788997  0.07556535     0.21500
H663        H  0.82025121  0.27803093  0.41703563     0.26800
H664        H  0.84937338  0.25349670  0.03021473     0.15600
C665        C  0.15628418  0.28490868  0.02280488    -0.11700
C666        C  0.13730422  0.30174753  0.49964294     0.14900
C667        C  0.14789015  0.32016490  0.47727018     0.01800
C668        C  0.17424167  0.32591829  0.47890594    -0.16000
C669        C  0.19084772  0.31401594  0.50292465    -0.10800
C670        C  0.18258939  0.29136706  0.02500284     0.08500
C671        C  0.11030258  0.29265489  0.49638789     0.09500
S672        S  0.12880173  0.33685569  0.44563839    -0.25200
H673        H  0.18103005  0.34028215  0.46128035     0.19800
S674        S  0.20200089  0.27532854  0.05710485    -0.30900
H675        H  0.14836660  0.27002199  0.03913436     0.10100
C676        C  0.10336776  0.27516238  0.47075025     0.03300
C677        C  0.07802027  0.26580710  0.46962892    -0.13200
C678        C  0.05941137  0.27327976  0.49391254    -0.08800
C679        C  0.06886542  0.28750705  0.02025720     0.06800
C680        C  0.09465739  0.29559218  0.02194479    -0.13900
S681        S  0.12724112  0.26350789  0.44077055    -0.30800
H682        H  0.07310710  0.25140623  0.45095967     0.11000
S683        S  0.04705422  0.29850048  0.05305107    -0.27900
H684        H  0.10071826  0.30760314  0.04290618     0.08200
H685        H  0.18333996  0.25751565  0.06809167     0.26700
H686        H  0.11089346  0.24679653  0.42298286     0.21500
H687        H  0.02520012  0.29930122  0.03184374     0.26800
H688        H  0.10528557  0.33586964  0.46363054     0.15600
C689        C  0.11086292  0.09089916  0.01434214    -0.11700
C690        C  0.11353755  0.11074837  0.49590260     0.14900
C691        C  0.13219803  0.10781576  0.46979508     0.01800
C692        C  0.14955396  0.08716694  0.47125562    -0.16000
C693        C  0.14906266  0.06949074  0.49852983    -0.10800
C694        C  0.12823975  0.07033146  0.01652446     0.08500
C695        C  0.09400183  0.13153466  0.49536229     0.09500
S696        S  0.13501948  0.12975581  0.43412670    -0.25200
H697        H  0.16401253  0.08529142  0.45132586     0.19800
S698        S  0.12283309  0.04698727  0.04994907    -0.30900
H699        H  0.09555661  0.09259828  0.03317244     0.10100
C700        C  0.07272373  0.13086288  0.47310787     0.03300
C701        C  0.05438287  0.15072734  0.47408305    -0.13200
C702        C  0.05677477  0.17118468  0.49704626    -0.08800
C703        C  0.08029402  0.17231389  0.00687981     0.06800
C704        C  0.09789377  0.15190221  0.00664919    -0.13900
S705        S  0.06839658  0.10420990  0.44443979    -0.30800
H706        H  0.03772086  0.14998556  0.45752730     0.11000
S707        S  0.08866250  0.20030594  0.03123757    -0.27900
H708        H  0.11537247  0.15315050  0.02165498     0.08200
H709        H  0.12912108  0.02564960  0.02963153     0.26700
H710        H  0.04637349  0.11389977  0.42781047     0.21500
H711        H  0.07740751  0.21793351  0.00842476     0.26800
H712        H  0.12511200  0.15147227  0.45083925     0.15600
C713        C  0.69767111  0.86981574  0.01211802    -0.11700
C714        C  0.72685612  0.87573919  0.50894098     0.14900
C715        C  0.74566267  0.85620670  0.50704831     0.01800
C716        C  0.73802059  0.83049248  0.50566285    -0.16000
C717        C  0.71174554  0.82301328  0.50784953    -0.10800
C718        C  0.69042422  0.84377490  0.01318034     0.08500
C719        C  0.73355644  0.90343949  0.50628662     0.09500
S720        S  0.77992763  0.86271927  0.50658203    -0.25200
H721        H  0.75346102  0.81688774  0.50301640     0.19800
S722        S  0.65685996  0.83655240  0.02127511    -0.30900
H723        H  0.68324503  0.88470357  0.01530649     0.10100
C724        C  0.74484039  0.91387844  0.47644998     0.03300
C725        C  0.75276683  0.93959670  0.47612183    -0.13200
C726        C  0.74928387  0.95546495  0.50475001    -0.08800
C727        C  0.73569606  0.94661875  0.02988628     0.06800
C728        C  0.72759433  0.92094352  0.03132628    -0.13900
S729        S  0.74921008  0.89452333  0.43868212    -0.30800
H730        H  0.76281688  0.94700144  0.45388654     0.11000
S731        S  0.73107619  0.96560562  0.06773878    -0.27900
H732        H  0.72014796  0.91320095  0.05514215     0.08200
H733        H  0.64749561  0.86190597  0.02222188     0.26700
H734        H  0.76159494  0.91329507  0.41856850     0.21500
H735        H  0.72538072  0.98840924  0.04977732     0.26800
H736        H  0.77854206  0.88573871  0.52504435     0.15600
C737        C  0.73031279  0.17306204  0.02088865    -0.11700
C738        C  0.72427458  0.15620907  0.50078051     0.14900
C739        C  0.70668674  0.16452193  0.47575150     0.01800
C740        C  0.69937640  0.19038481  0.47404463    -0.16000
C741        C  0.70877182  0.20887768  0.49722115    -0.10800
C742        C  0.72277869  0.19911033  0.02120127     0.08500
C743        C  0.73439425  0.12945800  0.50148683     0.09500
S744        S  0.69300977  0.14303145  0.44473036    -0.25200
H745        H  0.68588437  0.19523291  0.45431024     0.19800
S746        S  0.73722450  0.21997626  0.05250900    -0.30900
H747        H  0.74510744  0.16622600  0.03817054     0.10100
C748        C  0.75289128  0.12123854  0.47743417     0.03300
C749        C  0.76150420  0.09569214  0.47806349    -0.13200
C750        C  0.75233993  0.07798856  0.50253366    -0.08800
C751        C  0.73225458  0.08572148  0.02164016     0.06400
C752        C  0.72314455  0.11116680  0.02248287    -0.13900
S753        S  0.76635406  0.14360892  0.44676329    -0.30800
H754        H  0.77633981  0.08975100  0.46019236     0.11000
S755        S  0.72140318  0.06421129  0.05488534    -0.27900
H756        H  0.71057538  0.11714808  0.04316842     0.08200
H757        H  0.75374569  0.20171665  0.06758640     0.26700
H758        H  0.78228642  0.12594358  0.42957337     0.21500
H759        H  0.72067507  0.04239392  0.03390228     0.26800
H760        H  0.69326518  0.12098017  0.46557552     0.15600
C761        C  0.92866528  0.12765566  0.01449147    -0.11700
C762        C  0.90834120  0.13040334  0.50730222     0.14900
C763        C  0.90655246  0.15109241  0.48400702     0.01800
C764        C  0.92603938  0.16955691  0.48316266    -0.16000
C765        C  0.94708679  0.16819084  0.50556881    -0.10800
C766        C  0.94864584  0.14564687  0.01524071     0.08500
C767        C  0.88937683  0.10937536  0.50761725     0.09500
S768        S  0.88010365  0.15492417  0.45453012    -0.25200
H769        H  0.92452070  0.18540353  0.46520527     0.19800
S770        S  0.97534986  0.13914221  0.04340541    -0.30900
H771        H  0.92950707  0.11102175  0.03122304     0.10100
C772        C  0.88991294  0.09006323  0.48263541     0.03300
C773        C  0.87108468  0.07081807  0.48337218    -0.13200
C774        C  0.85166033  0.07059524  0.50852365    -0.08800
C775        C  0.84889564  0.09252064  0.01634490     0.06800
C776        C  0.86838869  0.11098645  0.01583703    -0.13900
S777        S  0.91476689  0.08980207  0.45011959    -0.30800
H778        H  0.87160762  0.05575228  0.46446371     0.11000
S779        S  0.82284933  0.09710194  0.04641618    -0.27900
H780        H  0.86785295  0.12650007  0.03414513     0.08200
H781        H  0.99443269  0.14761044  0.02028603     0.26700
H782        H  0.90587918  0.06810779  0.43256193     0.21500
H783        H  0.80340122  0.09006287  0.02336899     0.26800
H784        H  0.86137449  0.14234611  0.47450728     0.15600
C785        C  0.84430833  0.74100480  0.01983224    -0.11700
C786        C  0.86221882  0.72850288  0.49385103     0.14900
C787        C  0.85327763  0.70986501  0.47082710     0.01800
C788        C  0.82689334  0.70390338  0.46971095    -0.16000
C789        C  0.80817570  0.71628895  0.99663050    -0.10800
C790        C  0.81791455  0.73463036  0.02016972     0.08500
C791        C  0.88949840  0.73759521  0.49410769     0.09500
S792        S  0.87460216  0.69265605  0.44235131    -0.25200
H793        H  0.82129335  0.68965284  0.45148649     0.19800
S794        S  0.79718327  0.75017137  0.05121059    -0.30900
H795        H  0.85147274  0.75568003  0.03675389     0.10100
C796        C  0.89993010  0.75191062  0.46668780     0.03300
C797        C  0.92525313  0.76128896  0.46879745    -0.13200
C798        C  0.94001537  0.75786326  0.99689470    -0.08800
C799        C  0.93056539  0.74323689  0.02488961     0.06800
C800        C  0.90514611  0.73394143  0.02449119    -0.13900
S801        S  0.88035740  0.76007256  0.43006179    -0.30800
H802        H  0.93268980  0.77302913  0.44811617     0.11000
S803        S  0.94991876  0.73547479  0.06166986    -0.27900
H804        H  0.89791068  0.72319675  0.04627930     0.08200
H805        H  0.81609580  0.76550714  0.06658560     0.26700
H806        H  0.89938794  0.77369661  0.41181043     0.21500
H807        H  0.97305810  0.73271776  0.04304370     0.26800
H808        H  0.89676126  0.69433151  0.46278778     0.15600
C809        C  0.15683216  0.73768915  0.48174995    -0.11700
C810        C  0.13859702  0.72806813  0.00005940     0.14900
C811        C  0.14780003  0.70797060  0.02090832     0.01800
C812        C  0.17416535  0.70193373  0.02094840    -0.16000
C813        C  0.19322011  0.71238372  0.50393868    -0.10800
C814        C  0.18314891  0.73084439  0.48046434     0.08500
C815        C  0.11152582  0.73762701  0.00239951     0.09500
S816        S  0.12680815  0.68915246  0.04806944    -0.25200
H817        H  0.17989226  0.68597532  0.03678293     0.19800
S818        S  0.20335045  0.74586869  0.44826939    -0.30900
H819        H  0.14951420  0.75261151  0.46500284     0.10100
C820        C  0.10300244  0.75214916  0.03057623     0.03300
C821        C  0.07774406  0.76209355  0.03100724    -0.13200
C822        C  0.06159481  0.75618563  0.50599691    -0.08800
C823        C  0.07131897  0.74287282  0.47718672     0.06800
C824        C  0.09658172  0.73299532  0.47751022    -0.13900
S825        S  0.12482295  0.75936662  0.06506908    -0.30800
H826        H  0.07175226  0.77424987  0.05192683     0.11000
S827        S  0.05250549  0.73748849  0.43934550    -0.27900
H828        H  0.10399525  0.72336429  0.45504375     0.08200
H829        H  0.18411062  0.76097794  0.43271937     0.26700
H830        H  0.10745808  0.77418654  0.08446136     0.21500
H831        H  0.02916124  0.73368312  0.45718080     0.26800
H832        H  0.10457337  0.69185974  0.02790234     0.15600
C833        C  0.90124701  0.87588097  0.01422312    -0.11700
C834        C  0.90751914  0.89855423  0.50515564     0.14900
C835        C  0.92865500  0.90008504  0.48224053     0.01800
C836        C  0.94701151  0.88026292  0.48175952    -0.16000
C837        C  0.94495223  0.85903052  0.50383886    -0.10800
C838        C  0.92004098  0.85648347  0.01489138     0.08500
C839        C  0.88735782  0.91866603  0.50685981     0.09500
S840        S  0.93353892  0.92656332  0.45289554    -0.25200
H841        H  0.96340418  0.88173896  0.46456422     0.19800
S842        S  0.91301849  0.82792554  0.03938905    -0.30900
H843        H  0.88381620  0.87369410  0.02936760     0.10100
C844        C  0.86684102  0.91940376  0.48343245     0.03300
C845        C  0.84891439  0.93960458  0.48488327    -0.13200
C846        C  0.85094148  0.95901472  0.50950652    -0.08800
C847        C  0.87282624  0.96137611  0.01532818     0.06800
C848        C  0.89012660  0.94067006  0.01472262    -0.13900
S849        S  0.86352594  0.89460199  0.45175204    -0.30800
H850        H  0.83315804  0.94026272  0.46681273     0.11000
S851        S  0.88219018  0.98950982  0.03874223    -0.27900
H852        H  0.90815672  0.94198494  0.02853012     0.08200
H853        H  0.92420204  0.81104186  0.01565945     0.26700
H854        H  0.83999392  0.90334849  0.43806640     0.21500
H855        H  0.87169396  0.00726867  0.01537567     0.26800
H856        H  0.91700174  0.94451363  0.46826980     0.15600
C857        C  0.10987819  0.93915143  0.48322743    -0.11700
C858        C  0.11392563  0.91917191  0.00279131     0.14900
C859        C  0.13458363  0.91966668  0.02615375     0.01800
C860        C  0.15227730  0.93989053  0.02478401    -0.16000
C861        C  0.14761863  0.96080293  0.50562937    -0.10800
C862        C  0.12756014  0.95935201  0.48133850     0.08500
C863        C  0.09399718  0.89891585  0.00378671     0.09500
S864        S  0.13952543  0.89504152  0.05807242    -0.25200
H865        H  0.16812680  0.94008537  0.04276192     0.19800
S866        S  0.12269514  0.98320275  0.44841256    -0.30900
H867        H  0.09455198  0.93805054  0.46454202     0.10100
C868        C  0.07375712  0.89919963  0.02795773     0.03300
C869        C  0.05495805  0.87983636  0.02726316    -0.13200
C870        C  0.05634476  0.85923796  0.50932704    -0.08800
C871        C  0.07720905  0.85961464  0.48588210     0.06800
C872        C  0.09453311  0.88008807  0.48609137    -0.13900
S873        S  0.07150758  0.92461317  0.05899652    -0.30800
H874        H  0.03901181  0.88034558  0.04522007     0.11000
S875        S  0.08352872  0.83403987  0.45613479    -0.27900
H876        H  0.11042654  0.88036692  0.46798633     0.08200
H877        H  0.12922369  0.00416529  0.46912480     0.26700
H878        H  0.05000946  0.91485715  0.07683822     0.21500
H879        H  0.07608918  0.81425237  0.47869991     0.26800
H880        H  0.12895124  0.87479935  0.03922555     0.15600
O881        O  0.02707507  0.78086814  0.97424107    -0.72100
O882        O  0.97546369  0.83291993  0.97054230    -0.72300
O883        O  0.02743067  0.83197243  0.97382466    -0.72100
O884        O  0.97456725  0.78166490  0.97109026    -0.72100
O885        O  0.97393392  0.77898499  0.52942030    -0.72100
O886        O  0.02574708  0.83053825  0.53468921    -0.72100
O887        O  0.97380262  0.83002612  0.53176888    -0.72100
O888        O  0.02669218  0.77921922  0.53256351    -0.72300
V889        V  0.00108008  0.80675405  0.97350549     1.35200
V890        V  0.00012023  0.80458832  0.53105004     1.35200
C891        C  0.03649155  0.77363392  0.00246974     0.77200
C892        C  0.96585305  0.83961734  0.50400432     0.77200
C893        C  0.03500584  0.84102619  0.00190910     0.77100
C894        C  0.96488773  0.77237033  0.50082075     0.77100
O895        O  0.77129565  0.04220630  0.53262979    -0.72100
O896        O  0.82259074  0.98951875  0.53621682    -0.72300
O897        O  0.82258000  0.04123205  0.53543997    -0.72100
O898        O  0.77113316  0.98956310  0.53359910    -0.72100
O899        O  0.76919128  0.99065742  0.97024667    -0.72100
O900        O  0.82275078  0.04052601  0.96678767    -0.72100
O901        O  0.82057424  0.98871187  0.96892869    -0.72100
O902        O  0.77139923  0.04306410  0.96795724    -0.72300
V903        V  0.79676826  0.01559563  0.53342787     1.35200
V904        V  0.79586964  0.01575129  0.96953144     1.35200
C905        C  0.76340004  0.05300339  0.99547462     0.77200
C906        C  0.83032844  0.98096991  0.99668583     0.77200
C907        C  0.83064159  0.05094335  0.99389460     0.77100
C908        C  0.76238989  0.98065875  0.99844856     0.77100
O909        O  0.97337650  0.24981979  0.96910089    -0.72100
O910        O  0.02578446  0.19854044  0.96310196    -0.72300
O911        O  0.97403972  0.19873006  0.96618120    -0.72100
O912        O  0.02619919  0.24968252  0.96593502    -0.72100
O913        O  0.02593758  0.25143569  0.52456917    -0.72100
O914        O  0.97696167  0.19744401  0.53035397    -0.72100
O915        O  0.02864711  0.20031548  0.52618558    -0.72100
O916        O  0.97347497  0.24860886  0.52871700    -0.72300
V917        V  0.99989151  0.22435346  0.96713614     1.35200
V918        V  0.00118139  0.22458972  0.52640337     1.35200
C919        C  0.96303273  0.25490697  0.99764085     0.77200
C920        C  0.03679640  0.19020593  0.98973283     0.77200
C921        C  0.96743556  0.18764186  0.99363147     0.77100
C922        C  0.03609742  0.25725179  0.99356742     0.77100
O923        O  0.22926570  0.98862528  0.53073410    -0.72100
O924        O  0.17749360  0.04060910  0.52795126    -0.72300
O925        O  0.17765108  0.98920799  0.53104986    -0.72100
O926        O  0.22899777  0.04081509  0.52782090    -0.72100
O927        O  0.23096727  0.03977332  0.97041402    -0.72100
O928        O  0.17924110  0.98804468  0.97118286    -0.72100
O929        O  0.17932819  0.03948396  0.96791784    -0.72100
O930        O  0.23087602  0.98763424  0.97343998    -0.72300
V931        V  0.20349255  0.01477892  0.52831665     1.35200
V932        V  0.20520710  0.01376890  0.97180076     1.35200
C933        C  0.23870678  0.97933713  0.00199851     0.77200
C934        C  0.16882603  0.04828922  0.99460388     0.77200
C935        C  0.17018524  0.97960452  0.99911498     0.77100
C936        C  0.23759255  0.05072162  0.99779376     0.77100
C937        C  0.22149029  0.70903879  0.00218738     0.86200
C938        C  0.23106610  0.69413110  0.97100178    -0.54000
C939        C  0.25701496  0.68893747  0.97042650     0.09100
C940        C  0.27121161  0.69883493  0.00245080     0.20100
C941        C  0.23188258  0.68909473  0.53506219    -0.54800
C942        C  0.25772093  0.68426016  0.53491853     0.09200
C943        C  0.23894594  0.73277811  0.00418909    -0.54300
C944        C  0.26518415  0.72805209  0.00333856     0.09800
H945        H  0.21783122  0.68709463  0.95184716     0.14300
H946        H  0.29205867  0.69411665  0.00282181     0.00100
H947        H  0.21982170  0.68130005  0.55517308     0.14600
H948        H  0.23039014  0.75163216  0.00642013     0.14400
C949        C  0.29910024  0.79293091  0.50235291     0.86200
C950        C  0.31473745  0.78722712  0.53454064    -0.54000
C951        C  0.32381688  0.76271567  0.53742518     0.09100
C952        C  0.31501822  0.74513119  0.50786003     0.20100
C953        C  0.31740084  0.78658931  0.97246275    -0.54800
C954        C  0.32587790  0.76164437  0.97297544     0.09200
C955        C  0.27728134  0.77294204  0.50343413    -0.54300
C956        C  0.28507076  0.74781590  0.50669091     0.09800
H957        H  0.31953424  0.80203842  0.55284867     0.14300
H958        H  0.32198579  0.72510826  0.51001270     0.00100
H959        H  0.32345821  0.80029106  0.95303230     0.14600
H960        H  0.25735954  0.77793996  0.49997632     0.14400
O961        O  0.52957334  0.71374639  0.71836755    -0.72100
O962        O  0.47599270  0.71459795  0.78567546    -0.72300
O963        O  0.47731928  0.71523099  0.71709302    -0.72100
O964        O  0.52839762  0.71310766  0.78698157    -0.72100
O965        O  0.53102654  0.75467748  0.78453506    -0.72100
O966        O  0.47667284  0.75682861  0.72015956    -0.72100
O967        O  0.47903833  0.75608584  0.78840091    -0.72100
O968        O  0.52870453  0.75535534  0.71644660    -0.72300
V969        V  0.50282675  0.71492278  0.75206259     1.35200
V970        V  0.50381979  0.75491351  0.75239248     1.35200
C971        C  0.53845198  0.73447214  0.70607052     0.77200
C972        C  0.46829419  0.73558008  0.79840161     0.77200
C973        C  0.46785636  0.73647073  0.70735317     0.77100
C974        C  0.53923215  0.73359964  0.79643420     0.77100
C975        C  0.70153808  0.79525529  0.00522322     0.86200
C976        C  0.68415718  0.79034653  0.97428674    -0.54000
C977        C  0.67557629  0.76567098  0.97141235     0.09100
C978        C  0.68613789  0.74744283  0.99927283     0.20100
C979        C  0.68845931  0.78347976  0.53402163    -0.54800
C980        C  0.67909531  0.75906828  0.52984597     0.09200
C981        C  0.72349454  0.77545388  0.00135176    -0.54300
C982        C  0.71593708  0.75045268  0.99742675     0.09800
H983        H  0.67859242  0.80544608  0.95652139     0.14300
H984        H  0.67942688  0.72740876  0.99678406     0.00100
H985        H  0.68450493  0.79472663  0.55670411     0.14600
H986        H  0.74348590  0.78034690  0.00363242     0.14400
C987        C  0.77952191  0.70873442  0.49043683     0.86200
C988        C  0.76997817  0.69595294  0.52367776    -0.54000
C989        C  0.74403004  0.69112052  0.52479796     0.09100
C990        C  0.72971110  0.69924118  0.49217469     0.20100
C991        C  0.76977365  0.69192668  0.96659317    -0.54800
C992        C  0.74408429  0.68644159  0.96765638     0.09200
C993        C  0.76222492  0.73239762  0.48551526    -0.54300
C994        C  0.73605366  0.72812552  0.48814876     0.09800
H995        H  0.78300808  0.69009128  0.54394911     0.14300
H996        H  0.70882860  0.69471022  0.49292715     0.00100
H997        H  0.78191394  0.68331465  0.94725261     0.14600
H998        H  0.77082829  0.75104934  0.48137204     0.14400
C999        C  0.30237615  0.23401667  0.99826928     0.86200
C1000       C  0.31641923  0.24306119  0.96567026    -0.54000
C1001       C  0.32419658  0.26826901  0.96553947     0.09100
C1002       C  0.31587885  0.28260962  0.99831921     0.20100
C1003       C  0.31637472  0.24027859  0.52801157    -0.54800
C1004       C  0.32433843  0.26525450  0.52862528     0.09200
C1005       C  0.27986915  0.25314347  0.00255801    -0.54300
C1006       C  0.28639061  0.27853905  0.00179064     0.09800
H1007       H  0.32109170  0.22990532  0.94514184     0.14300
H1008       H  0.32133973  0.30305187  0.99863353     0.00100
H1009       H  0.32327916  0.22600222  0.54616208     0.14600
H1010       H  0.26047597  0.24743904  0.00848720     0.14400
C1011       C  0.22010349  0.32004727  0.50382952     0.86200
C1012       C  0.22776861  0.33346640  0.53679765    -0.54000
C1013       C  0.25342529  0.33847664  0.53965753     0.09100
C1014       C  0.26978698  0.32902217  0.50896994     0.20100
C1015       C  0.23264647  0.33564590  0.97575103    -0.54800
C1016       C  0.25840186  0.34128750  0.97814260     0.09200
C1017       C  0.23719475  0.29602230  0.50178763    -0.54300
C1018       C  0.26612445  0.29935402  0.00439257     0.09800
H1019       H  0.21364413  0.34044206  0.55516837     0.14300
H1020       H  0.29059506  0.33269535  0.51191585     0.00100
H1021       H  0.22142473  0.34302559  0.95466217     0.14600
H1022       H  0.22863439  0.27746689  0.49716199     0.14400
O1023       O  0.30486873  0.53834171  0.72193827    -0.72100
O1024       O  0.30500999  0.48641862  0.79025962    -0.72300
O1025       O  0.30274140  0.48672273  0.72191002    -0.72100
O1026       O  0.30675650  0.53831314  0.79042689    -0.72100
O1027       O  0.26488501  0.53944014  0.79320661    -0.72100
O1028       O  0.26091486  0.48859808  0.72447806    -0.72100
O1029       O  0.26316630  0.48775628  0.79259654    -0.72100
O1030       O  0.26299615  0.54006573  0.72447212    -0.72300
V1031       V  0.30404015  0.51249914  0.75626256     1.35200
V1032       V  0.26381736  0.51400725  0.75869780     1.35200
C1033       C  0.28391805  0.54776530  0.71115945     0.77200
C1034       C  0.28414765  0.47759525  0.80225831     0.77200
C1035       C  0.28105288  0.47882997  0.71156720     0.77100
C1036       C  0.28640188  0.54789870  0.80316646     0.77100
O1037       O  0.52386885  0.31465028  0.78031200    -0.72100
O1038       O  0.47481454  0.31498106  0.70828444    -0.72300
O1039       O  0.47167183  0.31332331  0.77680075    -0.72100
O1040       O  0.52695915  0.31598927  0.71211269    -0.72100
O1041       O  0.52653583  0.27441688  0.70906626    -0.72100
O1042       O  0.47435599  0.27187483  0.77728950    -0.72100
O1043       O  0.47438939  0.27328664  0.70919592    -0.72100
O1044       O  0.52621507  0.27308402  0.77758475    -0.72300
V1045       V  0.49933931  0.31396624  0.74434326     1.35200
V1046       V  0.50039347  0.27398423  0.74325423     1.35200
C1047       C  0.53367446  0.29382291  0.79087972     0.77200
C1048       C  0.46565815  0.29416899  0.69724148     0.77200
C1049       C  0.46350748  0.29197853  0.78816825     0.77100
C1050       C  0.53629406  0.29556446  0.69975514     0.77100
C1051       C  0.69621744  0.23719320  0.99582260     0.86200
C1052       C  0.68514372  0.24558831  0.52766230    -0.54000
C1053       C  0.67808168  0.27094562  0.52861570     0.09100
C1054       C  0.68350519  0.28610389  0.99631783     0.20100
C1055       C  0.67834059  0.24553764  0.96647348    -0.54800
C1056       C  0.67186111  0.27088387  0.96624358     0.09200
C1057       C  0.71914666  0.25574760  0.99219539    -0.54300
C1058       C  0.71298110  0.28149183  0.99330297     0.09800
H1059       H  0.67990622  0.23195853  0.54756396     0.14300
H1060       H  0.67773094  0.30657883  0.99641899     0.00100
H1061       H  0.67141503  0.23321678  0.94646326     0.14600
H1062       H  0.74194862  0.24981819  0.48894285     0.14400
C1063       C  0.77704228  0.31998727  0.99697991     0.86200
C1064       C  0.77029113  0.33611679  0.96536762    -0.54000
C1065       C  0.74483576  0.34261205  0.96249188     0.09100
C1066       C  0.72785945  0.33176163  0.99163698     0.20100
C1067       C  0.76722294  0.33818780  0.52751280    -0.54800
C1068       C  0.74150214  0.34374252  0.52488027     0.09200
C1069       C  0.75900706  0.29679800  0.99607378    -0.54300
C1070       C  0.73321141  0.30233828  0.99297157     0.09800
H1071       H  0.78491451  0.34338667  0.94786299     0.14300
H1072       H  0.70728968  0.33738739  0.98937453     0.00100
H1073       H  0.77819731  0.34558782  0.54865597     0.14600
H1074       H  0.76667966  0.27754567  0.99875534     0.14400
O1075       O  0.69475673  0.54131190  0.77906314    -0.72100
O1076       O  0.69402578  0.49364548  0.70554764    -0.72300
O1077       O  0.69480973  0.48983622  0.77441462    -0.72100
O1078       O  0.69405822  0.54539702  0.71066091    -0.72100
O1079       O  0.73595770  0.54450697  0.70880561    -0.72100
O1080       O  0.73667209  0.49028887  0.77387397    -0.72100
O1081       O  0.73589007  0.49303784  0.70521205    -0.72100
O1082       O  0.73650582  0.54180707  0.77719572    -0.72300
V1083       V  0.69520116  0.51749043  0.74233967     1.35200
V1084       V  0.73542613  0.51737391  0.74129175     1.35200
C1085       C  0.71573912  0.55008836  0.79043267     0.77200
C1086       C  0.71486852  0.48524507  0.69267769     0.77200
C1087       C  0.71592712  0.48097429  0.78565269     0.77100
C1088       C  0.71497481  0.55458060  0.69916523     0.77100
C1089       C  0.73498749  0.44397524  0.61655108    -0.11700
C1090       C  0.71458924  0.42637526  0.61513601     0.14900
C1091       C  0.69346430  0.42937641  0.63769564     0.01800
C1092       C  0.69376054  0.44905674  0.66204721    -0.16000
C1093       C  0.71459419  0.46624356  0.66431111    -0.10800
C1094       C  0.73503516  0.46401833  0.64028388     0.08500
C1095       C  0.71702806  0.40417349  0.59156636     0.09500
S1096       S  0.66578780  0.40848662  0.63701453    -0.25200
H1097       H  0.67776458  0.45059764  0.67985201     0.19800
S1098       S  0.76140829  0.48644104  0.63773668    -0.30900
H1099       H  0.75112425  0.44199104  0.59902923     0.10100
C1100       C  0.71538491  0.40721763  0.55580481     0.03300
C1101       C  0.72126661  0.38637187  0.53443106    -0.13200
C1102       C  0.72902983  0.36260183  0.54810035    -0.08800
C1103       C  0.72895102  0.35915173  0.58391801     0.06800
C1104       C  0.72309981  0.37993210  0.60520657    -0.13900
S1105       S  0.70655405  0.43785954  0.53741110    -0.30800
H1106       H  0.72134803  0.38902353  0.50699170     0.11000
S1107       S  0.73685152  0.32885763  0.60388140    -0.27900
H1108       H  0.72407461  0.37740332  0.63265866     0.08200
H1109       H  0.74588594  0.50818013  0.64380807     0.26700
H1110       H  0.70773611  0.43022791  0.50303694     0.21500
H1111       H  0.72947362  0.31352461  0.57618215     0.26800
H1112       H  0.66740848  0.40244296  0.60213349     0.15600
C1113       C  0.71074323  0.38101779  0.89219863    -0.11700
C1114       C  0.72572108  0.40342785  0.89159531     0.14900
C1115       C  0.74502127  0.40665212  0.91650006     0.01800
C1116       C  0.75045565  0.38662987  0.93927960    -0.16000
C1117       C  0.73659136  0.36347956  0.93869245    -0.10800
C1118       C  0.71593314  0.36106264  0.91549625     0.08500
C1119       C  0.72236201  0.42217620  0.86324603     0.09500
S1120       S  0.76374110  0.43565057  0.92010638    -0.25200
H1121       H  0.76572477  0.38915864  0.95778211     0.19800
S1122       S  0.69632760  0.33272517  0.91312166    -0.30900
H1123       H  0.69562962  0.37860831  0.87345359     0.10100
C1124       C  0.74121714  0.42472324  0.83738830     0.03300
C1125       C  0.73829041  0.44371547  0.81217615    -0.13200
C1126       C  0.71682247  0.46029954  0.81198164    -0.08800
C1127       C  0.69769975  0.45746378  0.83772273     0.06800
C1128       C  0.70060739  0.43825601  0.86285122    -0.13900
S1129       S  0.76898198  0.40360781  0.83631677    -0.30800
H1130       H  0.75287288  0.44569051  0.79245078     0.11000
S1131       S  0.67045027  0.47915401  0.84037261    -0.27900
H1132       H  0.68631114  0.43616908  0.88291995     0.08200
H1133       H  0.71608952  0.31549895  0.92212519     0.26700
H1134       H  0.78126275  0.41500909  0.80796203     0.21500
H1135       H  0.66029837  0.46975639  0.87136942     0.26800
H1136       H  0.74476900  0.45232299  0.90701477     0.15600
C1137       C  0.57492585  0.27509666  0.86716411    -0.11700
C1138       C  0.59468493  0.29340506  0.86510329     0.14900
C1139       C  0.59387134  0.31229126  0.83912724     0.01800
C1140       C  0.57348318  0.31228080  0.81569430    -0.16000
C1141       C  0.55379422  0.29381097  0.81756562    -0.10800
C1142       C  0.55442655  0.27524574  0.84402480     0.08500
C1143       C  0.61593785  0.29172121  0.89021597     0.09500
S1144       S  0.61834500  0.33661214  0.83420458    -0.25200
H1145       H  0.57320940  0.32657932  0.79548185     0.19800
S1146       S  0.52929551  0.25180047  0.85039339    -0.30900
H1147       H  0.57540563  0.26066156  0.88721370     0.10100
C1148       C  0.61185316  0.29803498  0.92470573     0.03300
C1149       C  0.63114452  0.29261404  0.94869410    -0.13200
C1150       C  0.65471406  0.28145848  0.93907336    -0.08800
C1151       C  0.65935857  0.27673050  0.90389720     0.06800
C1152       C  0.63987223  0.28171205  0.88002896    -0.13900
S1153       S  0.58163939  0.31214863  0.93831643    -0.30800
H1154       H  0.62693811  0.29539178  0.97534777     0.11000
S1155       S  0.68932843  0.26367906  0.88767587    -0.27900
H1156       H  0.64312418  0.27709325  0.85339937     0.08200
H1157       H  0.50894555  0.26825623  0.84080337     0.26700
H1158       H  0.58874385  0.31635215  0.97241676     0.21500
H1159       H  0.70488715  0.27117896  0.91510480     0.26800
H1160       H  0.62551766  0.33767304  0.86872838     0.15600
C1161       C  0.60081054  0.31000739  0.65642561    -0.11700
C1162       C  0.60041596  0.29257108  0.62932521     0.14900
C1163       C  0.57874845  0.27649018  0.62526482     0.01800
C1164       C  0.55793931  0.27839335  0.64806183    -0.16000
C1165       C  0.55811992  0.29596751  0.67509865    -0.10800
C1166       C  0.57989254  0.31200128  0.67913423     0.08500
C1167       C  0.62267671  0.29152727  0.60547548     0.09500
S1168       S  0.57639865  0.25315071  0.59155107    -0.25200
H1169       H  0.54148215  0.26586480  0.64479588     0.19800
S1170       S  0.58288130  0.33395972  0.71414284    -0.30900
H1171       H  0.61750668  0.32219398  0.65983066     0.10100
C1172       C  0.62160716  0.30305189  0.57292026     0.03300
C1173       C  0.64158203  0.29848505  0.54935942    -0.13200
C1174       C  0.66209556  0.28175003  0.55716168    -0.08800
C1175       C  0.66479122  0.27333971  0.59148725     0.06800
C1176       C  0.64486303  0.27787170  0.61501777    -0.13900
S1177       S  0.59428615  0.32272294  0.56098138    -0.30800
H1178       H  0.64051611  0.30723628  0.52447564     0.11000
S1179       S  0.69358502  0.25794647  0.60738233    -0.27900
H1180       H  0.64639020  0.27021792  0.64072810     0.08200
H1181       H  0.56192900  0.34914767  0.70328096     0.26700
H1182       H  0.60389074  0.33053861  0.52892720     0.21500
H1183       H  0.71021056  0.26915060  0.58305883     0.26800
H1184       H  0.60293678  0.24793165  0.58857079     0.15600
C1185       C  0.30247187  0.41667296  0.85108915    -0.11700
C1186       C  0.28225906  0.41522314  0.87486382     0.14900
C1187       C  0.26264396  0.43415381  0.87453308     0.01800
C1188       C  0.26390383  0.45422979  0.85072692    -0.16000
C1189       C  0.28409944  0.45582137  0.82678738    -0.10800
C1190       C  0.30339165  0.43643740  0.82672976     0.08500
C1191       C  0.28163867  0.39351928  0.89925676     0.09500
S1192       S  0.23566093  0.43432549  0.90398806    -0.25200
H1193       H  0.24893618  0.46882037  0.85099440     0.19800
S1194       S  0.32877627  0.43481149  0.79517677    -0.30900
H1195       H  0.31726539  0.40190229  0.85096935     0.10100
C1196       C  0.26903298  0.37055530  0.89106594     0.03300
C1197       C  0.26417532  0.35252689  0.91691872    -0.13200
C1198       C  0.27129867  0.35711569  0.95102774    -0.08800
C1199       C  0.28686425  0.37873529  0.95809548     0.06800
C1200       C  0.29155787  0.39686871  0.93210340    -0.13900
S1201       S  0.25710447  0.36532081  0.84840132    -0.30800
H1202       H  0.25331712  0.33542384  0.91095661     0.11000
S1203       S  0.30002024  0.38438658  0.99987208    -0.27900
H1204       H  0.30196669  0.41433115  0.93762292     0.08200
H1205       H  0.31249034  0.44077843  0.76754327     0.26700
H1206       H  0.24578539  0.34125609  0.85482279     0.21500
H1207       H  0.31141775  0.40830031  0.99275262     0.26800
H1208       H  0.23575900  0.40824030  0.91300943     0.15600
C1209       C  0.27393508  0.37112579  0.62183735    -0.11700
C1210       C  0.26971619  0.39702378  0.61313092     0.14900
C1211       C  0.26161191  0.40328950  0.57974085     0.01800
C1212       C  0.25788149  0.38374098  0.55603101    -0.16000
C1213       C  0.26202974  0.35786550  0.56459440    -0.10800
C1214       C  0.26998458  0.35146478  0.59803864     0.08500
C1215       C  0.27321032  0.41714270  0.63937517     0.09500
S1216       S  0.25478479  0.43573994  0.56607509    -0.25200
H1217       H  0.25076647  0.38868848  0.53082766     0.19800
S1218       S  0.27387510  0.31876674  0.61268621    -0.30900
H1219       H  0.27987529  0.36619157  0.64755776     0.10100
C1220       C  0.25486315  0.42077931  0.66559920     0.03300
C1221       C  0.25790691  0.44112018  0.68854860    -0.13200
C1222       C  0.27887116  0.45812287  0.68585362    -0.08800
C1223       C  0.29700516  0.45460992  0.65912637     0.06800
C1224       C  0.29416767  0.43402381  0.63656297    -0.13900
S1225       S  0.22706331  0.40005421  0.66911859    -0.30800
H1226       H  0.24391544  0.44372046  0.70886707     0.11000
S1227       S  0.32318851  0.47653286  0.65105402    -0.27900
H1228       H  0.30796276  0.43159162  0.61593543     0.08200
H1229       H  0.27482888  0.30692900  0.58061566     0.26700
H1230       H  0.21540653  0.41246998  0.69704013     0.21500
H1231       H  0.30859937  0.49874880  0.65804861     0.26800
H1232       H  0.24522766  0.44437087  0.59764231     0.15600
C1233       C  0.38764464  0.26928209  0.57710449    -0.11700
C1234       C  0.38248823  0.28897626  0.60020502     0.14900
C1235       C  0.35878367  0.30245278  0.59810499     0.01800
C1236       C  0.34023685  0.29477525  0.57413955    -0.16000
C1237       C  0.34492870  0.27402961  0.55223496    -0.10800
C1238       C  0.36942183  0.26194136  0.55290366     0.08500
C1239       C  0.40194169  0.29314242  0.62719502     0.09500
S1240       S  0.35072398  0.32894496  0.62562618    -0.25200
H1241       H  0.32194396  0.30481045  0.57283341     0.19800
S1242       S  0.37861375  0.23850759  0.52144274    -0.30900
H1243       H  0.40609291  0.25947360  0.57837646     0.10100
C1244       C  0.40169589  0.27794841  0.65707883     0.03300
C1245       C  0.42284150  0.27860145  0.67929641    -0.13200
C1246       C  0.44436858  0.29408571  0.67223393    -0.08800
C1247       C  0.44457706  0.30934446  0.64225780     0.06800
C1248       C  0.42333875  0.30879623  0.62016448    -0.13900
S1249       S  0.37473816  0.25706446  0.66628766    -0.30800
H1250       H  0.42262081  0.26704026  0.70237668     0.11000
S1251       S  0.47202693  0.32840402  0.62959628    -0.27900
H1252       H  0.42394956  0.31977044  0.59657575     0.08200
H1253       H  0.40385874  0.23390168  0.53310467     0.26700
H1254       H  0.38518141  0.24551019  0.69572688     0.21500
H1255       H  0.49074997  0.31140939  0.64269044     0.26800
H1256       H  0.37607470  0.33539367  0.63466775     0.15600
C1257       C  0.41234162  0.26743073  0.85136217    -0.11700
C1258       C  0.39842799  0.28991292  0.85827443     0.14900
C1259       C  0.40619579  0.31311324  0.84258856     0.01800
C1260       C  0.42760722  0.31326073  0.82045432    -0.16000
C1261       C  0.44143931  0.29061755  0.81290368    -0.10800
C1262       C  0.43337832  0.26737207  0.82882846     0.08500
C1263       C  0.37706339  0.28842170  0.88368839     0.09500
S1264       S  0.38949559  0.34308190  0.84952374    -0.25200
H1265       H  0.43320096  0.33126177  0.80861844     0.19800
S1266       S  0.44911451  0.23689401  0.82242526    -0.30900
H1267       H  0.40671165  0.24963742  0.86377842     0.10100
C1268       C  0.35444829  0.27442645  0.87723009     0.03300
C1269       C  0.33672564  0.26994973  0.90383431    -0.13200
C1270       C  0.34115212  0.27873909  0.93729843    -0.08800
C1271       C  0.36306085  0.29464718  0.94280361     0.06800
C1272       C  0.38066708  0.29905287  0.91599245    -0.13900
S1273       S  0.34841714  0.26185382  0.83514118    -0.30800
H1274       H  0.31961915  0.25877751  0.89872048     0.11000
S1275       S  0.37083177  0.30814585  0.98374630    -0.27900
H1276       H  0.39815972  0.30978903  0.92062512     0.08200
H1277       H  0.44214193  0.23598020  0.78774972     0.26700
H1278       H  0.32506576  0.24943593  0.84310663     0.21500
H1279       H  0.38878826  0.32640485  0.97196789     0.26800
H1280       H  0.36509006  0.33233760  0.85602148     0.15600
C1281       C  0.69676898  0.59971328  0.85864523    -0.11700
C1282       C  0.72113303  0.60802801  0.86932574     0.14900
C1283       C  0.74338804  0.59682067  0.85461805     0.01800
C1284       C  0.74083700  0.57783102  0.82975204    -0.16000
C1285       C  0.71649288  0.56977282  0.81814827    -0.10800
C1286       C  0.69414302  0.58104331  0.83317766     0.08500
C1287       C  0.72301547  0.62792201  0.89634007     0.09500
S1288       S  0.77572799  0.60612300  0.86608871    -0.25200
H1289       H  0.75827352  0.56959499  0.81898791     0.19800
S1290       S  0.66168528  0.57268008  0.82149656    -0.30900
H1291       H  0.67960907  0.60804559  0.87007658     0.10100
C1292       C  0.71628590  0.65382487  0.89007680     0.03300
C1293       C  0.72120014  0.67246252  0.91512308    -0.13200
C1294       C  0.73360300  0.66581412  0.94571569    -0.08800
C1295       C  0.74014269  0.63983238  0.95197919     0.06800
C1296       C  0.73410716  0.62114107  0.92771120    -0.13900
S1297       S  0.70378739  0.66346744  0.84896670    -0.30800
H1298       H  0.71692017  0.69247723  0.91002234     0.11000
S1299       S  0.75832309  0.63057806  0.98940501    -0.27900
H1300       H  0.73952366  0.60131156  0.93216394     0.08200
H1301       H  0.66529384  0.57954453  0.78703891     0.26700
H1302       H  0.70418458  0.69007221  0.85482795     0.21500
H1303       H  0.75732434  0.60278746  0.48187803     0.26800
H1304       H  0.76991786  0.63209992  0.87202969     0.15600
C1305       C  0.73131032  0.66102664  0.61164967    -0.11700
C1306       C  0.71883788  0.63839767  0.60191347     0.14900
C1307       C  0.71043585  0.63573962  0.56789581     0.01800
C1308       C  0.71698859  0.65448571  0.54371340    -0.16000
C1309       C  0.73192402  0.67581597  0.55265838    -0.10800
C1310       C  0.73756463  0.67994372  0.58747632     0.08500
C1311       C  0.71757370  0.61684325  0.62661912     0.09500
S1312       S  0.69302506  0.60800703  0.55325651    -0.25200
H1313       H  0.71173446  0.65147717  0.51731724     0.19800
S1314       S  0.75255990  0.70888324  0.60256627    -0.30900
H1315       H  0.73705220  0.66352477  0.63799388     0.10100
C1316       C  0.73468855  0.59584694  0.62392250     0.03300
C1317       C  0.73334100  0.57585823  0.64796120    -0.13200
C1318       C  0.71527002  0.57638475  0.67477832    -0.08800
C1319       C  0.69854546  0.59780403  0.67784611     0.06800
C1320       C  0.69973732  0.61767666  0.65360469    -0.13900
S1321       S  0.75872377  0.59481840  0.59032600    -0.30800
H1322       H  0.74638669  0.55965775  0.64582549     0.11000
S1323       S  0.67646761  0.60167197  0.71312362    -0.27900
H1324       H  0.68696097  0.63408936  0.65604601     0.08200
H1325       H  0.74315594  0.72470157  0.57610420     0.26700
H1326       H  0.76868396  0.57035914  0.59827050     0.21500
H1327       H  0.69374462  0.59200019  0.73769901     0.26800
H1328       H  0.68173497  0.60171140  0.58490402     0.15600
C1329       C  0.59964086  0.71755407  0.65538590    -0.11700
C1330       C  0.60070729  0.73795100  0.63188937     0.14900
C1331       C  0.58108518  0.75687004  0.63266283     0.01800
C1332       C  0.56099007  0.75495264  0.65666715    -0.16000
C1333       C  0.55992836  0.73469368  0.68053996    -0.10800
C1334       C  0.57981951  0.71588950  0.67989429     0.08500
C1335       C  0.62236865  0.73910904  0.60678876     0.09500
S1336       S  0.58051428  0.78397199  0.60372758    -0.25200
H1337       H  0.54605742  0.76957723  0.65677093     0.19800
S1338       S  0.58194011  0.68997435  0.71046302    -0.30900
H1339       H  0.61471646  0.70307580  0.65506492     0.10100
C1340       C  0.64704808  0.74778416  0.61606285     0.03300
C1341       C  0.66584429  0.75199683  0.59064013    -0.13200
C1342       C  0.66070421  0.74770125  0.55580331    -0.08800
C1343       C  0.63659898  0.73645709  0.54720856     0.06800
C1344       C  0.61772614  0.73273691  0.57272418    -0.13900
S1345       S  0.65402512  0.75524686  0.66001260    -0.30800
H1346       H  0.68436351  0.75982684  0.59779934     0.11000
S1347       S  0.62840538  0.72774301  0.50415751    -0.27900
H1348       H  0.59882044  0.72558290  0.56604958     0.08200
H1349       H  0.57547821  0.70510441  0.73885610     0.26700
H1350       H  0.68045801  0.76035015  0.65529920     0.21500
H1351       H  0.60488876  0.71540578  0.51142619     0.26800
H1352       H  0.60739023  0.78631759  0.59990023     0.15600
C1353       C  0.61573310  0.76454704  0.91514678    -0.11700
C1354       C  0.61960559  0.74203370  0.89662056     0.14900
C1355       C  0.64163207  0.72674278  0.90323416     0.01800
C1356       C  0.65963394  0.73485053  0.92762352    -0.16000
C1357       C  0.65603792  0.75784696  0.94568949    -0.10800
C1358       C  0.63316421  0.77225419  0.94000674     0.08500
C1359       C  0.60063642  0.73637339  0.86962519     0.09500
S1360       S  0.64773113  0.69668596  0.88204517    -0.25200
H1361       H  0.67666808  0.72323764  0.93232738     0.19800
S1362       S  0.62349197  0.79925608  0.96548056    -0.30900
H1363       H  0.59853508  0.77599076  0.91064432     0.10100
C1364       C  0.57948189  0.71987515  0.87511836     0.03300
C1365       C  0.56013137  0.71820063  0.85008612    -0.13200
C1366       C  0.56134107  0.73325150  0.82019212    -0.08800
C1367       C  0.58311288  0.74907810  0.81450126     0.06800
C1368       C  0.60231054  0.75053845  0.83925851    -0.13900
S1369       S  0.57652133  0.70216168  0.91470316    -0.30800
H1370       H  0.54347660  0.70609653  0.85446340     0.11000
S1371       S  0.58768681  0.76802238  0.77625945    -0.27900
H1372       H  0.61853762  0.76329802  0.83515104     0.08200
H1373       H  0.63218812  0.78846607  0.99637274     0.26700
H1374       H  0.55258652  0.69077053  0.90751070     0.21500
H1375       H  0.57684221  0.74991189  0.75424724     0.26800
H1376       H  0.63248857  0.70113656  0.85305314     0.15600
C1377       C  0.40445970  0.72415437  0.84534704    -0.11700
C1378       C  0.40645917  0.74147957  0.87249398     0.14900
C1379       C  0.42921023  0.75618789  0.87563518     0.01800
C1380       C  0.44915322  0.75346588  0.85156639    -0.16000
C1381       C  0.44702765  0.73649242  0.82399979    -0.10800
C1382       C  0.42424738  0.72173130  0.82094277     0.08500
C1383       C  0.38451057  0.74404607  0.89695183     0.09500
S1384       S  0.43394541  0.77893674  0.90956490    -0.25200
H1385       H  0.46645118  0.76491586  0.85422758     0.19800
S1386       S  0.41851388  0.70067793  0.78546550    -0.30900
H1387       H  0.38703384  0.71289997  0.84268477     0.10100
C1388       C  0.36181602  0.75740970  0.88813591     0.03300
C1389       C  0.34239406  0.76109639  0.91282704    -0.13200
C1390       C  0.34524117  0.75240456  0.94681519    -0.08800
C1391       C  0.36789912  0.73821431  0.95513123     0.06800
C1392       C  0.38701621  0.73411901  0.93005453    -0.13900
S1393       S  0.35825925  0.77114548  0.84594241    -0.30800
H1394       H  0.32512531  0.77159624  0.90582856     0.11000
S1395       S  0.37414718  0.72648542  0.99766914    -0.27900
H1396       H  0.40454712  0.72381388  0.93642574     0.08200
H1397       H  0.42879327  0.71753189  0.76075699     0.26700
H1398       H  0.33523241  0.78468544  0.85244895     0.21500
H1399       H  0.39770151  0.71392653  0.49381893     0.26800
H1400       H  0.40791393  0.78620610  0.91300146     0.15600
C1401       C  0.36505521  0.72948745  0.60604759    -0.11700
C1402       C  0.38493369  0.74745019  0.60989894     0.14900
C1403       C  0.38512005  0.76960138  0.58900474     0.01800
C1404       C  0.36487988  0.77395353  0.56623423    -0.16000
C1405       C  0.34440378  0.75643718  0.56285974    -0.10800
C1406       C  0.34485314  0.73373903  0.58285837     0.08500
C1407       C  0.40486211  0.74317693  0.63644226     0.09500
S1408       S  0.41069855  0.79303454  0.58996479    -0.25200
H1409       H  0.36549998  0.79102195  0.55030818     0.19800
S1410       S  0.32002770  0.70987054  0.58095426    -0.30900
H1411       H  0.36494669  0.71233322  0.62184683     0.10100
C1412       C  0.40600127  0.75877088  0.66568312     0.03300
C1413       C  0.42678349  0.75606118  0.68825430    -0.13200
C1414       C  0.44639886  0.73786710  0.68253159    -0.08800
C1415       C  0.44480180  0.72177233  0.65366285     0.06800
C1416       C  0.42393825  0.72441736  0.63118942    -0.13900
S1417       S  0.38082862  0.78195628  0.67444700    -0.30800
H1418       H  0.42769930  0.76807588  0.71067512     0.11000
S1419       S  0.46949373  0.69873189  0.64283569    -0.27900
H1420       H  0.42314654  0.71252382  0.60861777     0.08200
H1421       H  0.30015840  0.72747042  0.57398744     0.26700
H1422       H  0.39165708  0.79197355  0.70440015     0.21500
H1423       H  0.49025200  0.71440019  0.65252889     0.26800
H1424       H  0.43050661  0.77583173  0.59905612     0.15600
C1425       C  0.27415595  0.65197617  0.61938228    -0.11700
C1426       C  0.28195679  0.62762452  0.60820264     0.14900
C1427       C  0.28406625  0.62299462  0.57283296     0.01800
C1428       C  0.27723267  0.64231544  0.54963350    -0.16000
C1429       C  0.26906040  0.66658050  0.56062925    -0.10800
C1430       C  0.26749666  0.67141279  0.59615729     0.08500
C1431       C  0.28388378  0.60660157  0.63373848     0.09500
S1432       S  0.29400425  0.59244036  0.55565416    -0.25200
H1433       H  0.27654557  0.63763077  0.52291239     0.19800
S1434       S  0.25552426  0.70110836  0.61400966    -0.30900
H1435       H  0.27199226  0.65546158  0.64650443     0.10100
C1436       C  0.30296711  0.60630780  0.65928203     0.03300
C1437       C  0.30289646  0.58658886  0.68391174    -0.13200
C1438       C  0.28400866  0.56727565  0.68361742    -0.08800
C1439       C  0.26556635  0.56715301  0.65715899     0.06800
C1440       C  0.26543199  0.58697938  0.63297705    -0.13900
S1441       S  0.32756384  0.63078765  0.66020404    -0.30800
H1442       H  0.31736279  0.58641039  0.70375778     0.11000
S1443       S  0.24252179  0.54164784  0.65183239    -0.27900
H1444       H  0.25089173  0.58703702  0.61315796     0.08200
H1445       H  0.25714642  0.71639115  0.58449181     0.26700
H1446       H  0.34060627  0.62148716  0.68920813     0.21500
H1447       H  0.25964228  0.52190379  0.66153726     0.26800
H1448       H  0.30946942  0.58516242  0.58352087     0.15600
C1449       C  0.26672720  0.65221237  0.88753158    -0.11700
C1450       C  0.28267122  0.63209350  0.89864296     0.14900
C1451       C  0.29414264  0.63357081  0.93116546     0.01800
C1452       C  0.28738353  0.65375569  0.95301427    -0.16000
C1453       C  0.26904140  0.67240167  0.94343575    -0.10800
C1454       C  0.26036606  0.67261996  0.90911796     0.08500
C1455       C  0.28541952  0.60929434  0.87642483     0.09500
S1456       S  0.31633003  0.60960442  0.94701248    -0.25200
H1457       H  0.29593778  0.65419232  0.97805498     0.19800
S1458       S  0.24213387  0.69877039  0.89068083    -0.30900
H1459       H  0.25883250  0.65179169  0.86195556     0.10100
C1460       C  0.26882852  0.58806689  0.88020946     0.03300
C1461       C  0.26991315  0.56806718  0.85634272    -0.13200
C1462       C  0.28734258  0.56876901  0.82873539    -0.08800
C1463       C  0.30417918  0.58999213  0.82536706     0.06800
C1464       C  0.30312556  0.60988675  0.84927593    -0.13900
S1465       S  0.24564919  0.58693204  0.91480591    -0.30800
H1466       H  0.25694526  0.55190847  0.85894956     0.11000
S1467       S  0.32588731  0.59388340  0.78967332    -0.27900
H1468       H  0.31556933  0.62641223  0.84603912     0.08200
H1469       H  0.25212694  0.71760806  0.91251192     0.26700
H1470       H  0.23522272  0.56278986  0.90698323     0.21500
H1471       H  0.30787684  0.58559374  0.76540594     0.26800
H1472       H  0.32579441  0.60187141  0.91500466     0.15600
C1473       C  0.30579519  0.86890261  0.00426971    -0.11700
C1474       C  0.27805711  0.87496942  0.50215399     0.14900
C1475       C  0.25875171  0.85598697  0.50270443     0.01800
C1476       C  0.26566084  0.82998666  0.50230744    -0.16000
C1477       C  0.29170655  0.82179147  0.50029585    -0.10800
C1478       C  0.31264176  0.84270951  0.00368918     0.08500
C1479       C  0.27162332  0.90275792  0.50476145     0.09500
S1480       S  0.22471552  0.86364929  0.50426134    -0.25200
H1481       H  0.24998185  0.81661610  0.50414050     0.19800
S1482       S  0.34660898  0.83447926  0.00566455    -0.30900
H1483       H  0.32057608  0.88341687  0.00660453     0.10100
C1484       C  0.26131042  0.91332283  0.53498034     0.03300
C1485       C  0.25177359  0.93861356  0.53467320    -0.13200
C1486       C  0.25486336  0.95569818  0.00434889    -0.08800
C1487       C  0.26965584  0.94629517  0.97654646     0.06800
C1488       C  0.27855799  0.92082331  0.97698687    -0.13900
S1489       S  0.25968571  0.89436326  0.57371148    -0.30800
H1490       H  0.24226682  0.94598603  0.55726100     0.11000
S1491       S  0.27775375  0.96567702  0.93977778    -0.27900
H1492       H  0.28878765  0.91336621  0.95495987     0.08200
H1493       H  0.35640165  0.85962256  0.00555973     0.26700
H1494       H  0.25067938  0.91408268  0.59510532     0.21500
H1495       H  0.27955105  0.98875611  0.95809717     0.26800
H1496       H  0.22638126  0.88684583  0.48587195     0.15600
C1497       C  0.27352674  0.10959627  0.52574898    -0.11700
C1498       C  0.27488793  0.12441241  0.99535611     0.14900
C1499       C  0.26566778  0.11315574  0.96511259     0.01800
C1500       C  0.25514652  0.08844532  0.96627537    -0.16000
C1501       C  0.25389530  0.07426801  0.99695555    -0.10800
C1502       C  0.26471784  0.08421732  0.52738587     0.08500
C1503       C  0.28167922  0.15201559  0.99684365     0.09500
S1504       S  0.26528130  0.12997530  0.92469529    -0.25200
H1505       H  0.24679596  0.08076633  0.94319195     0.19800
S1506       S  0.26777689  0.06780196  0.56781973    -0.30900
H1507       H  0.28077459  0.11860007  0.54865002     0.10100
C1508       C  0.26235207  0.17093666  0.99734854     0.03300
C1509       C  0.26923231  0.19691880  0.99712277    -0.13200
C1510       C  0.29533620  0.20503412  0.99751265    -0.08800
C1511       C  0.31061387  0.18552070  0.49245575     0.06800
C1512       C  0.30398880  0.15939733  0.49246038    -0.13900
S1513       S  0.22863598  0.16190880  0.99828357    -0.30800
H1514       H  0.25360107  0.21036146  0.99560936     0.11000
S1515       S  0.34405478  0.19342841  0.48494327    -0.27900
H1516       H  0.31870259  0.14484391  0.48884648     0.08200
H1517       H  0.27394190  0.04392640  0.55320787     0.26700
H1518       H  0.21814549  0.18683879  0.99892714     0.21500
H1519       H  0.35366913  0.16835426  0.48085988     0.26800
H1520       H  0.28669279  0.14568791  0.93111405     0.15600
C1521       C  0.90426023  0.29664760  0.97662761    -0.11700
C1522       C  0.88754432  0.29159488  0.50156350     0.14900
C1523       C  0.89527760  0.27461141  0.52789587     0.01800
C1524       C  0.92064352  0.26525517  0.52852744    -0.16000
C1525       C  0.93767636  0.26838130  0.99971893    -0.10800
C1526       C  0.93000181  0.28794385  0.97663972     0.08500
C1527       C  0.86065819  0.30160734  0.49940043     0.09500
S1528       S  0.87339121  0.26298351  0.56045477    -0.25200
H1529       H  0.92594407  0.25161170  0.54831593     0.19800
S1530       S  0.95220423  0.30295370  0.94719887    -0.30900
H1531       H  0.89856487  0.31166910  0.95891011     0.10100
C1532       C  0.85058485  0.31881275  0.52359919     0.03300
C1533       C  0.82428406  0.32548945  0.52268404    -0.13200
C1534       C  0.80591341  0.31201284  0.99726169    -0.08800
C1535       C  0.81669365  0.29697909  0.97032262     0.06800
C1536       C  0.84278440  0.28939617  0.97139202    -0.13900
S1537       S  0.87146072  0.33270192  0.55535887    -0.30800
H1538       H  0.81746606  0.33869413  0.54162652     0.11000
S1539       S  0.79752445  0.28678111  0.93429768    -0.27900
H1540       H  0.85076215  0.27752319  0.95133016     0.08200
H1541       H  0.97388493  0.30057537  0.96852326     0.26700
H1542       H  0.85261674  0.34778473  0.57176206     0.21500
H1543       H  0.81755601  0.27524832  0.91542650     0.26800
H1544       H  0.85110461  0.26327635  0.54011054     0.15600
C1545       C  0.15308719  0.29055933  0.52456693    -0.11700
C1546       C  0.13985006  0.29728628  0.99964271     0.14900
C1547       C  0.14975626  0.31708496  0.97886028     0.01800
C1548       C  0.17599473  0.32326366  0.98038939    -0.16000
C1549       C  0.19320310  0.31034756  0.00263315    -0.10800
C1550       C  0.17945349  0.29666912  0.52690852     0.08500
C1551       C  0.11268703  0.28854273  0.99681490     0.09500
S1552       S  0.12984783  0.33529470  0.94968204    -0.25200
H1553       H  0.18220771  0.33898804  0.96450170     0.19800
S1554       S  0.19808411  0.28186151  0.56079563    -0.30900
H1555       H  0.14469094  0.27659352  0.54189700     0.10100
C1556       C  0.10468190  0.27332768  0.96925196     0.03300
C1557       C  0.07889875  0.26529566  0.96748776    -0.13200
C1558       C  0.06088204  0.27158003  0.99316828    -0.08800
C1559       C  0.06614494  0.29177025  0.51857241     0.06800
C1560       C  0.09153999  0.30100176  0.51981143    -0.13900
S1561       S  0.12769292  0.26286372  0.93737069    -0.30800
H1562       H  0.07315165  0.25271714  0.94700383     0.11000
S1563       S  0.04317946  0.30451103  0.54878887    -0.27900
H1564       H  0.09675453  0.31477584  0.53919263     0.08200
H1565       H  0.17745940  0.26971125  0.57780136     0.26700
H1566       H  0.11061236  0.24757553  0.91855429     0.21500
H1567       H  0.02166809  0.30212958  0.52722076     0.26800
H1568       H  0.10684713  0.33342129  0.96869162     0.15600
C1569       C  0.11281288  0.09302293  0.52293392    -0.11700
C1570       C  0.11256856  0.10897770  0.98779241     0.14900
C1571       C  0.13208868  0.10639234  0.96278436     0.01800
C1572       C  0.14960213  0.08595348  0.96511341    -0.16000
C1573       C  0.14837037  0.06812168  0.99214931    -0.10800
C1574       C  0.12999365  0.07226703  0.52426143     0.08500
C1575       C  0.09347811  0.13008661  0.98681975     0.09500
S1576       S  0.13573749  0.12836785  0.92728059    -0.25200
H1577       H  0.16480705  0.08441411  0.94612302     0.19800
S1578       S  0.12547599  0.04926354  0.55831771    -0.30900
H1579       H  0.09822246  0.09499251  0.54268720     0.10100
C1580       C  0.07102155  0.12858280  0.96680328     0.03300
C1581       C  0.05320104  0.14893508  0.96726734    -0.13200
C1582       C  0.05736340  0.17062512  0.98758848    -0.08800
C1583       C  0.07847169  0.17200996  0.51883246     0.06800
C1584       C  0.09657977  0.15201765  0.51810366    -0.13900
S1585       S  0.06476082  0.10042271  0.94154360    -0.30800
H1586       H  0.03557996  0.14764055  0.95261223     0.11000
S1587       S  0.08480885  0.19849289  0.54696685    -0.27900
H1588       H  0.11309015  0.15262630  0.53498257     0.08200
H1589       H  0.12982013  0.02768951  0.53757056     0.26700
H1590       H  0.04106030  0.10880189  0.92797967     0.21500
H1591       H  0.07615153  0.21749985  0.52399781     0.26800
H1592       H  0.12489069  0.15001960  0.94305901     0.15600
C1593       C  0.70097535  0.86881365  0.51301135    -0.11700
C1594       C  0.72325186  0.87718535  0.00626362     0.14900
C1595       C  0.74226511  0.85797124  0.00287750     0.01800
C1596       C  0.73511625  0.83207356  0.00281716    -0.16000
C1597       C  0.70922896  0.82406152  0.00780332    -0.10800
C1598       C  0.69325136  0.84295878  0.51327516     0.08500
C1599       C  0.72952395  0.90497405  0.00272593     0.09500
S1600       S  0.77620756  0.86520570  0.99820575    -0.25200
H1601       H  0.75051245  0.81870767  0.99811956     0.19800
S1602       S  0.65955539  0.83625901  0.52095180    -0.30900
H1603       H  0.68670029  0.88391593  0.51555511     0.10100
C1604       C  0.73801333  0.91552629  0.97139311     0.03300
C1605       C  0.74682144  0.94099300  0.97013677    -0.13200
C1606       C  0.74688215  0.95653446  0.99943428    -0.08800
C1607       C  0.73570134  0.94553420  0.53336249     0.06800
C1608       C  0.72838187  0.91963823  0.53400913    -0.13900
S1609       S  0.73808476  0.89640600  0.93305018    -0.30800
H1610       H  0.75490834  0.94834552  0.94651401     0.11000
S1611       S  0.72686377  0.96483770  0.56962790    -0.27900
H1612       H  0.71882401  0.91195327  0.55650553     0.08200
H1613       H  0.65110367  0.86164508  0.52593899     0.26700
H1614       H  0.74561457  0.91609984  0.91041909     0.21500
H1615       H  0.72293915  0.98744557  0.55044129     0.26800
H1616       H  0.77568548  0.88816738  0.01686051     0.15600
C1617       C  0.73369770  0.17403599  0.52418548    -0.11700
C1618       C  0.71935949  0.15558039  0.99815220     0.14900
C1619       C  0.69965301  0.16414752  0.97620674     0.01800
C1620       C  0.69241258  0.19006817  0.97593100    -0.16000
C1621       C  0.70413698  0.20840865  0.99738588    -0.10800
C1622       C  0.72624381  0.20007026  0.52285383     0.08500
C1623       C  0.72963715  0.12885543  0.99667052     0.09500
S1624       S  0.68294178  0.14289760  0.94760544    -0.25200
H1625       H  0.67684438  0.19509980  0.95911972     0.19800
S1626       S  0.73956479  0.22162925  0.55419251    -0.30900
H1627       H  0.74727610  0.16747441  0.54330292     0.10100
C1628       C  0.74547664  0.12080489  0.96937831     0.03300
C1629       C  0.75481739  0.09546609  0.96870157    -0.13200
C1630       C  0.74886930  0.07776714  0.99487497    -0.08800
C1631       C  0.73357093  0.08624700  0.52645178     0.06400
C1632       C  0.72497471  0.11188474  0.52584513    -0.13900
S1633       S  0.75492458  0.14321661  0.93623908    -0.30800
H1634       H  0.76788086  0.08979401  0.94843238     0.11000
S1635       S  0.71931252  0.06490891  0.55755332    -0.27900
H1636       H  0.71051659  0.11809711  0.54412026     0.08200
H1637       H  0.75636589  0.20400454  0.57003645     0.26700
H1638       H  0.76778739  0.12538785  0.91531272     0.21500
H1639       H  0.72057836  0.04296820  0.53683445     0.26800
H1640       H  0.68537464  0.12065457  0.96783753     0.15600
C1641       C  0.92918699  0.12904965  0.52991775    -0.11700
C1642       C  0.90801885  0.13039544  0.99172881     0.14900
C1643       C  0.90708436  0.15187547  0.96963093     0.01800
C1644       C  0.92701146  0.16988394  0.97043408    -0.16000
C1645       C  0.94771129  0.16726188  0.99324872    -0.10800
C1646       C  0.94871008  0.14752950  0.52908163     0.08500
C1647       C  0.88808392  0.11022888  0.99130308     0.09500
S1648       S  0.88121088  0.15743766  0.93972196    -0.25200
H1649       H  0.92604371  0.18642504  0.95355120     0.19800
S1650       S  0.97583796  0.14272530  0.55711303    -0.30900
H1651       H  0.93065574  0.11301669  0.54758830     0.10100
C1652       C  0.88847269  0.09051693  0.96685710     0.03300
C1653       C  0.86928862  0.07154635  0.96784869    -0.13200
C1654       C  0.84965968  0.07204919  0.99273116    -0.08800
C1655       C  0.85100571  0.09036800  0.53316410     0.06800
C1656       C  0.87017552  0.10916967  0.53286123    -0.13900
S1657       S  0.91370925  0.08929984  0.93492826    -0.30800
H1658       H  0.86984873  0.05600605  0.94963412     0.11000
S1659       S  0.82536058  0.09382885  0.56408736    -0.27900
H1660       H  0.86960158  0.12433194  0.55167911     0.08200
H1661       H  0.99450690  0.15044282  0.53296350     0.26700
H1662       H  0.90417139  0.06796135  0.91720464     0.21500
H1663       H  0.80558391  0.08808971  0.54085760     0.26800
H1664       H  0.86195050  0.14395803  0.95760716     0.15600
C1665       C  0.84460771  0.73958157  0.51666683    -0.11700
C1666       C  0.86176266  0.72902941  0.99760352     0.14900
C1667       C  0.85275357  0.70937219  0.97625029     0.01800
C1668       C  0.82636752  0.70352279  0.97559912    -0.16000
C1669       C  0.80866092  0.71544135  0.49192032    -0.10800
C1670       C  0.81823920  0.73319614  0.51635704     0.08500
C1671       C  0.88895614  0.73822690  0.99636858     0.09500
S1672       S  0.87404683  0.69075404  0.94936693    -0.25200
H1673       H  0.82075817  0.68819905  0.95897789     0.19800
S1674       S  0.79724393  0.74830795  0.54746483    -0.30900
H1675       H  0.85162776  0.75367647  0.53453997     0.10100
C1676       C  0.89861541  0.75182385  0.96783967     0.03300
C1677       C  0.92395397  0.76128473  0.96830112    -0.13200
C1678       C  0.94045977  0.75738667  0.49812641    -0.08800
C1679       C  0.93008275  0.74247881  0.52526406     0.06800
C1680       C  0.90479226  0.73299186  0.52304264    -0.13900
S1681       S  0.87807315  0.75890519  0.93178574    -0.30800
H1682       H  0.93071046  0.77276573  0.94695833     0.11000
S1683       S  0.94797171  0.73472528  0.56331815    -0.27900
H1684       H  0.89688811  0.72195597  0.54415656     0.08200
H1685       H  0.81630198  0.76196931  0.56513813     0.26700
H1686       H  0.89735052  0.76944354  0.91057798     0.21500
H1687       H  0.97168438  0.73149455  0.54616175     0.26800
H1688       H  0.89607926  0.69307259  0.96993145     0.15600
C1689       C  0.15574868  0.74006824  0.97731947    -0.11700
C1690       C  0.13964878  0.72581850  0.50459270     0.14900
C1691       C  0.14886251  0.70555427  0.52527134     0.01800
C1692       C  0.17524844  0.69939984  0.52516478    -0.16000
C1693       C  0.19221548  0.71522732  0.00018023    -0.10800
C1694       C  0.18216133  0.73350455  0.97642659     0.08500
C1695       C  0.11241732  0.73528548  0.50631319     0.09500
S1696       S  0.12784622  0.68628921  0.55185904    -0.25200
H1697       H  0.18103979  0.68358867  0.54121266     0.19800
S1698       S  0.20240712  0.74842144  0.94420666    -0.30900
H1699       H  0.14834324  0.75485878  0.96043281     0.10100
C1700       C  0.10241079  0.74740845  0.53570060     0.03300
C1701       C  0.07721231  0.75754582  0.53528454    -0.13200
C1702       C  0.06066274  0.75802194  0.00373054    -0.08800
C1703       C  0.06891052  0.74222980  0.97641314     0.06800
C1704       C  0.09427041  0.73262807  0.97577673    -0.13900
S1705       S  0.12234125  0.75196025  0.57291241    -0.30800
H1706       H  0.07024581  0.76793010  0.55735360     0.11000
S1707       S  0.04795290  0.73320887  0.94194230    -0.27900
H1708       H  0.10059707  0.72103591  0.95441707     0.08200
H1709       H  0.18351208  0.76460961  0.92986031     0.26700
H1710       H  0.10243003  0.76011979  0.59490303     0.21500
H1711       H  0.02551803  0.73202266  0.96230789     0.26800
H1712       H  0.10556694  0.68953953  0.53190859     0.15600
C1713       C  0.90515457  0.87712758  0.52671502    -0.11700
C1714       C  0.90458751  0.89799226  0.99411818     0.14900
C1715       C  0.92708891  0.90050036  0.97386687     0.01800
C1716       C  0.94610690  0.88134159  0.97505931    -0.16000
C1717       C  0.94311033  0.85950289  0.99582914    -0.10800
C1718       C  0.92335741  0.85723320  0.52595863     0.08500
C1719       C  0.88485477  0.91859934  0.99571146     0.09500
S1720       S  0.93288848  0.92789533  0.94652127    -0.25200
H1721       H  0.96358035  0.88369173  0.96004438     0.19800
S1722       S  0.91718517  0.82949795  0.55249178    -0.30900
H1723       H  0.88868300  0.87566819  0.54378426     0.10100
C1724       C  0.86149384  0.91692716  0.97756757     0.03300
C1725       C  0.84414240  0.93769112  0.97810015    -0.13200
C1726       C  0.84952713  0.95994431  0.99681626    -0.08800
C1727       C  0.87135438  0.95790393  0.53334926     0.06800
C1728       C  0.88912332  0.93760532  0.53199689    -0.13900
S1729       S  0.85411351  0.88863363  0.95310292    -0.30800
H1730       H  0.82619098  0.93655915  0.96412266     0.11000
S1731       S  0.87674359  0.98246399  0.56469576    -0.27900
H1732       H  0.90496682  0.93699730  0.54997046     0.08200
H1733       H  0.92599029  0.81161041  0.52828915     0.26700
H1734       H  0.82975816  0.89685067  0.94151356     0.21500
H1735       H  0.87065511  0.00303724  0.54267417     0.26800
H1736       H  0.90686498  0.93312085  0.93912298     0.15600
C1737       C  0.11186971  0.93857975  0.97798543    -0.11700
C1738       C  0.11134108  0.92066518  0.50931973     0.14900
C1739       C  0.13111307  0.92227197  0.53386970     0.01800
C1740       C  0.14877588  0.94244437  0.53199534    -0.16000
C1741       C  0.15030235  0.95934707  0.99992543    -0.10800
C1742       C  0.12964832  0.95873163  0.97645941     0.08500
C1743       C  0.09210200  0.89983508  0.50996069     0.09500
S1744       S  0.13516667  0.89904718  0.56782943    -0.25200
H1745       H  0.16409178  0.94332223  0.55071719     0.19800
S1746       S  0.12411250  0.98366375  0.94517918    -0.30900
H1747       H  0.09593380  0.93830458  0.96014819     0.10100
C1748       C  0.07181156  0.89925690  0.53404300     0.03300
C1749       C  0.05413548  0.87890341  0.53355274    -0.13200
C1750       C  0.05609054  0.86013643  0.00293317    -0.08800
C1751       C  0.07708943  0.85946330  0.97966897     0.06800
C1752       C  0.09540403  0.87910878  0.97987076    -0.13900
S1753       S  0.06792350  0.92488785  0.56449901    -0.30800
H1754       H  0.03810167  0.87869058  0.55138855     0.11000
S1755       S  0.08250144  0.83338499  0.95042334    -0.27900
H1756       H  0.11128539  0.87864474  0.96176000     0.08200
H1757       H  0.13129102  0.00393534  0.96668287     0.26700
H1758       H  0.04716962  0.91395540  0.58267416     0.21500
H1759       H  0.07495375  0.81413248  0.97373781     0.26800
H1760       H  0.12500274  0.87795892  0.55027408     0.15600
loop_ 
_geom_bond_atom_site_label_1 
_geom_bond_atom_site_label_2 
_geom_bond_distance 
_geom_bond_site_symmetry_2 
_ccdc_geom_bond_type 
O1            V9   1.906       .  S
O1           C11   1.266       .  A
O2            V9   1.904   1_655  S
O2          C892   1.265       .  A
O3            V9   1.893       .  S
O3           C13   1.263       .  A
O4            V9   1.899   1_655  S
O4          C894   1.265       .  A
O5           V10   1.904       .  S
O5           C14   1.266   1_554  A
O6           V10   1.904   1_455  S
O6          C893   1.265       .  A
O7           V10   1.903       .  S
O7           C12   1.265   1_554  A
O8           V10   1.907   1_455  S
O8          C891   1.267       .  A
V9          V890   2.085       .  T
V10         V889   2.085   1_654  T
C11         O888   1.267       .  A
C11         C822   1.496       .  S
C12         O882   1.264       .  A
C12        C1717   1.478       .  S
C13         O886   1.265       .  A
C13         C870   1.476       .  S
C14         O884   1.266       .  A
C14         C798   1.492       .  S
O15          V23   1.907       .  S
O15         C905   1.266   1_554  A
O16          V23   1.904   1_565  S
O16         C906   1.265   1_554  A
O17          V23   1.895       .  S
O17         C907   1.263   1_554  A
O18          V23   1.902   1_565  S
O18         C908   1.265   1_554  A
O19          V24   1.899   1_565  S
O19          C28   1.266       .  A
O20          V24   1.897       .  S
O20          C27   1.264       .  A
O21          V24   1.894   1_565  S
O21          C26   1.263       .  A
O22          V24   1.896       .  S
O22          C25   1.264       .  A
V23         V904   2.084   1_554  T
V24         V903   2.085       .  T
C25         O895   1.267       .  A
C25         C750   1.488       .  S
C26         O896   1.266       .  A
C26         C846   1.479       .  S
C27         O897   1.263       .  A
C27         C774   1.476       .  S
C28         O898   1.265       .  A
C28         C726   1.489       .  S
O29          V37   1.904       .  S
O29          C39   1.266       .  A
O30          V37   1.900   1_455  S
O30          C40   1.265       .  A
O31          V37   1.896       .  S
O31          C41   1.264       .  A
O32          V37   1.900   1_455  S
O32          C42   1.265       .  A
O33          V38   1.904       .  S
O33         C922   1.266   1_554  A
O34          V38   1.900   1_655  S
O34         C921   1.265   1_554  A
O35          V38   1.898       .  S
O35         C920   1.264   1_554  A
O36          V38   1.903   1_655  S
O36         C919   1.266   1_554  A
V37         V918   2.085   1_655  T
V38         V917   2.085   1_454  T
C39         O916   1.266       .  A
C39         C645   1.487       .  S
C40         O915   1.264       .  A
C40         C702   1.479       .  S
C41         O914   1.264       .  A
C41         C765   1.475       .  S
C42         O913   1.265       .  A
C42         C678   1.483       .  S
O43          V51   1.904   1_565  S
O43         C933   1.266       .  A
O44          V51   1.901       .  S
O44         C934   1.265   1_554  A
O45          V51   1.897   1_565  S
O45         C935   1.263   1_554  A
O46          V51   1.899       .  S
O46         C936   1.264   1_554  A
O47          V52   1.902       .  S
O47          C56   1.266       .  A
O48          V52   1.899   1_565  S
O48          C55   1.264       .  A
O49          V52   1.900       .  S
O49          C54   1.264       .  A
O50          V52   1.901   1_565  S
O50          C53   1.265       .  A
V51         V932   2.085   1_554  T
V52         V931   2.084       .  T
C53         O923   1.267       .  A
C53         C606   1.492       .  S
C54         O924   1.265       .  A
C54         C693   1.482       .  S
C55         O925   1.263       .  A
C55         C861   1.476       .  S
C56         O926   1.263       .  A
C56         C621   1.490       .  S
C57          C58   1.535       .  S
C57          C63   1.536       .  S
C57         C941   1.537       .  S
C57         C813   1.552       .  S
C58          H65   1.085       .  S
C58          C59   1.371       .  D
C59          C60   1.547       .  S
C59         C573   1.501       .  S
C60          C64   1.551       .  S
C60         C942   1.550       .  S
C60          H66   1.107       .  S
C61         C937   1.536       .  S
C61          H67   1.081       .  S
C61          C62   1.359       .  D
C62         C940   1.553       .  S
C62         C549   1.487       .  S
C63          H68   1.081       .  S
C63          C64   1.378       .  D
C64         C956   1.517       .  S
C69          C70   1.532       .  S
C69          C75   1.540       .  S
C69         C953   1.534   1_554  S
C69         C597   1.554       .  S
C70          H77   1.086       .  S
C70          C71   1.367       .  D
C71          C72   1.552       .  S
C71         C525   1.497       .  S
C72          C76   1.561       .  S
C72         C954   1.554   1_554  S
C72          H78   1.105       .  S
C73         C949   1.537       .  S
C73          H79   1.086       .  S
C73          C74   1.371       .  D
C74         C952   1.550       .  S
C74         C510   1.504       .  S
C75          H80   1.070       .  S
C75          C76   1.373       .  D
C76         C944   1.523       .  S
O81          V89   1.908       .  S
O81          C91   1.266       .  A
O82          V89   1.909       .  S
O82          C92   1.266       .  A
O83          V89   1.911       .  S
O83          C93   1.267       .  A
O84          V89   1.912       .  S
O84          C94   1.267       .  A
O85          V90   1.895       .  S
O85          C94   1.263       .  A
O86          V90   1.894       .  S
O86          C93   1.263       .  A
O87          V90   1.906       .  S
O87          C92   1.267       .  A
O88          V90   1.906       .  S
O88          C91   1.267       .  A
V89          V90   2.084       .  T
C91         C453   1.496       .  S
C92         C501   1.492       .  S
C93         C534   1.481       .  S
C94         C486   1.479       .  S
C95          C96   1.537       .  S
C95         C101   1.539       .  S
C95         C979   1.537       .  S
C95         C717   1.557       .  S
C96         H103   1.086       .  S
C96          C97   1.367       .  D
C97          C98   1.546       .  S
C97         C477   1.490       .  S
C98         C102   1.554       .  S
C98         C980   1.553       .  S
C98         H104   1.106       .  S
C99         C975   1.539       .  S
C99         H105   1.086       .  S
C99         C100   1.372       .  D
C100        C978   1.552   1_554  S
C100        C462   1.506       .  S
C101        H106   1.069       .  S
C101        C102   1.369       .  D
C102        C994   1.515       .  S
C107        C108   1.537   1_556  S
C107        C113   1.534       .  S
C107        C991   1.540       .  S
C107        C789   1.551       .  S
C108        H115   1.086       .  S
C108        C109   1.368       .  D
C109        C110   1.537   1_554  S
C109        C429   1.484       .  S
C110        C114   1.549       .  S
C110        C992   1.547       .  S
C110        H116   1.108       .  S
C111        C987   1.540       .  S
C111        H117   1.081       .  S
C111        C112   1.363       .  D
C112        C990   1.547       .  S
C112        C414   1.485       .  S
C113        H118   1.082       .  S
C113        C114   1.378       .  D
C114        C982   1.514       .  S
C119        C120   1.537       .  S
C119        C125   1.543       .  S
C119       C1003   1.535       .  S
C119        C630   1.556       .  S
C120        H127   1.085       .  S
C120        C121   1.373       .  D
C121        C122   1.548       .  S
C121        C390   1.508       .  S
C122        C126   1.551       .  S
C122       C1004   1.546       .  S
C122        H128   1.102       .  S
C123        C999   1.534   1_554  S
C123        H129   1.086       .  S
C123        C124   1.367       .  D
C124       C1002   1.545   1_554  S
C124        C357   1.481       .  S
C125        H130   1.071       .  S
C125        C126   1.371       .  D
C126        C138   1.514       .  S
C131        C132   1.528       .  S
C131        C137   1.530       .  S
C131       C1015   1.543   1_554  S
C131       C1549   1.547       .  S
C132        H139   1.087       .  S
C132        C133   1.361       .  D
C133        C134   1.550       .  S
C133        C333   1.482       .  S
C134       C1018   1.551       .  S
C134       C1016   1.545   1_554  S
C134        H140   1.105       .  S
C135       C1011   1.545       .  S
C135        H141   1.078       .  S
C135        C136   1.373       .  D
C136       C1014   1.547       .  S
C136        C318   1.505       .  S
C137        H142   1.082   1_554  S
C137       C1018   1.375       .  D
C138       C1014   1.552       .  S
C138       C1017   1.376       .  D
O143        V151   1.906       .  S
O143        C153   1.265       .  A
O144        V151   1.906       .  S
O144        C154   1.265       .  A
O145        V151   1.910       .  S
O145        C155   1.267       .  A
O146        V151   1.910       .  S
O146        C156   1.267       .  A
O147        V152   1.903       .  S
O147        C156   1.265       .  A
O148        V152   1.900       .  S
O148        C155   1.265       .  A
O149        V152   1.901       .  S
O149        C154   1.265       .  A
O150        V152   1.904       .  S
O150        C153   1.265       .  A
V151        V152   2.085       .  T
C153        C558   1.485       .  S
C154        C309   1.488       .  S
C155        C342   1.491       .  S
C156        C582   1.488       .  S
O157        V165   1.899       .  S
O157        C167   1.264       .  A
O158        V165   1.900       .  S
O158        C168   1.263       .  A
O159        V165   1.911       .  S
O159        C169   1.269       .  A
O160        V165   1.909       .  S
O160        C170   1.266       .  A
O161        V166   1.898       .  S
O161        C170   1.266       .  A
O162        V166   1.894       .  S
O162        C169   1.262       .  A
O163        V166   1.899       .  S
O163        C168   1.264       .  A
O164        V166   1.901       .  S
O164        C167   1.265       .  A
V165        V166   2.084       .  T
C167        C261   1.481       .  S
C168        C366   1.472       .  S
C169        C381   1.494       .  S
C170        C285   1.498       .  S
C171        C177   1.539       .  S
C171        C175   1.539       .  S
C171       C1052   1.536       .  S
C171        C741   1.553       .  S
C172       C1051   1.533   1_554  S
C172        H179   1.085       .  S
C172        C173   1.369       .  D
C173       C1054   1.551   1_554  S
C173        C294   1.501       .  S
C174        C178   1.548       .  S
C174        C176   1.550       .  S
C174       C1053   1.547       .  S
C174        H180   1.106       .  S
C175        H181   1.079       .  S
C175        C176   1.360       .  D
C176        C270   1.488       .  S
C177       H1062   1.082       .  S
C177        C178   1.378       .  D
C178        C190   1.512       .  S
H182       C1057   1.082       .  S
C183        C184   1.532       .  S
C183        C189   1.533       .  S
C183       C1067   1.547       .  S
C183        C654   1.548       .  S
C184        H191   1.087       .  S
C184        C185   1.365       .  D
C185        C186   1.543       .  S
C185        C237   1.490       .  S
C186        C190   1.558       .  S
C186       C1068   1.541       .  S
C186        H192   1.107       .  S
C187       C1063   1.551   1_554  S
C187        H193   1.081       .  S
C187        C188   1.370       .  D
C188       C1066   1.539   1_554  S
C188        C222   1.488       .  S
C189        H194   1.082       .  S
C189        C190   1.373       .  D
O195        V203   1.909       .  S
O195        C205   1.266       .  A
O196        V203   1.915       .  S
O196        C206   1.268       .  A
O197        V203   1.903       .  S
O197        C207   1.265       .  A
O198        V203   1.904       .  S
O198        C208   1.265       .  A
O199        V204   1.895       .  S
O199        C208   1.264       .  A
O200        V204   1.895       .  S
O200        C207   1.264       .  A
O201        V204   1.897       .  S
O201        C206   1.264       .  A
O202        V204   1.899       .  S
O202        C205   1.266       .  A
V203        V204   2.084       .  T
C205        C405   1.496       .  S
C206        C213   1.494       .  S
C207        C246   1.478       .  S
C208        C438   1.480       .  S
C209        C210   1.402       .  A
C209        C214   1.404       .  A
C209        H219   1.083       .  S
C210        C215   1.489       .  S
C210        C211   1.412       .  A
C211        C212   1.406       .  A
C211        S216   1.803       .  S
C212        C213   1.408       .  A
C212        H217   1.084       .  S
C213        C214   1.418       .  A
C214        S218   1.809       .  S
C215        C220   1.411       .  A
C215        C224   1.404       .  A
S216        H232   1.406       .  S
S218        H229   1.407       .  S
C220        C221   1.406       .  A
C220        S225   1.806       .  S
C221        C222   1.404       .  A
C221        H226   1.082       .  S
C222        C223   1.412       .  A
C223        C224   1.403       .  A
C223        S227   1.803       .  S
C224        H228   1.084       .  S
S225        H230   1.407       .  S
S227        H231   1.406       .  S
C233        C234   1.402       .  A
C233        C238   1.403       .  A
C233        H243   1.084       .  S
C234        C239   1.479       .  S
C234        C235   1.410       .  A
C235        C236   1.396       .  A
C235        S240   1.805       .  S
C236        C237   1.406       .  A
C236        H241   1.084       .  S
C237        C238   1.413       .  A
C238        S242   1.794       .  S
C239        C244   1.408       .  A
C239        C248   1.402       .  A
S240        H256   1.404       .  S
S242        H253   1.404       .  S
C244        C245   1.400       .  A
C244        S249   1.807       .  S
C245        C246   1.404       .  A
C245        H250   1.083       .  S
C246        C247   1.414       .  A
C247        C248   1.405       .  A
C247        S251   1.807       .  S
C248        H252   1.083       .  S
S249        H254   1.407       .  S
S251        H255   1.407       .  S
C257        C258   1.403       .  A
C257        C262   1.399       .  A
C257        H267   1.084       .  S
C258        C263   1.482       .  S
C258        C259   1.411       .  A
C259        C260   1.401       .  A
C259        S264   1.804       .  S
C260        C261   1.406       .  A
C260        H265   1.084       .  S
C261        C262   1.414       .  A
C262        S266   1.803       .  S
C263        C268   1.408       .  A
C263        C272   1.401       .  A
S264        H280   1.406       .  S
S266        H277   1.407       .  S
C268        C269   1.402       .  A
C268        S273   1.807       .  S
C269        C270   1.403       .  A
C269        H274   1.074       .  S
C270        C271   1.419       .  A
C271        C272   1.401       .  A
C271        S275   1.808       .  S
C272        H276   1.084       .  S
S273        H278   1.406       .  S
S275        H279   1.403       .  S
C281        C282   1.403       .  A
C281        C286   1.404       .  A
C281        H291   1.084       .  S
C282        C287   1.490       .  S
C282        C283   1.412       .  A
C283        C284   1.399       .  A
C283        S288   1.805       .  S
C284        C285   1.409       .  A
C284        H289   1.083       .  S
C285        C286   1.421       .  A
C286        S290   1.799       .  S
C287        C292   1.411       .  A
C287        C296   1.403       .  A
S288        H304   1.406       .  S
S290        H301   1.408       .  S
C292        C293   1.404       .  A
C292        S297   1.806       .  S
C293        C294   1.403       .  A
C293        H298   1.076       .  S
C294        C295   1.418       .  A
C295        C296   1.402       .  A
C295        S299   1.803       .  S
C296        H300   1.084       .  S
S297        H302   1.406       .  S
S299        H303   1.406       .  S
C305        C306   1.401       .  A
C305        C310   1.404       .  A
C305        H315   1.084       .  S
C306        C311   1.482       .  S
C306        C307   1.413       .  A
C307        C308   1.399       .  A
C307        S312   1.807       .  S
C308        C309   1.405       .  A
C308        H313   1.084       .  S
C309        C310   1.419       .  A
C310        S314   1.801       .  S
C311        C316   1.404       .  A
C311        C320   1.400       .  A
S312        H328   1.403       .  S
S314        H325   1.408       .  S
C316        C317   1.400       .  A
C316        S321   1.807       .  S
C317        C318   1.411       .  A
C317        H322   1.082       .  S
C318        C319   1.421       .  A
C319        C320   1.408       .  A
C319        S323   1.803       .  S
C320        H324   1.083       .  S
S321        H326   1.407       .  S
S323        H327   1.406       .  S
C329        C330   1.406       .  A
C329        C334   1.406       .  A
C329        H339   1.084       .  S
C330        C335   1.484       .  S
C330        C331   1.413       .  A
C331        C332   1.398       .  A
C331        S336   1.809       .  S
C332        C333   1.403       .  A
C332        H337   1.085       .  S
C333        C334   1.413       .  A
C334        S338   1.805       .  S
C335        C340   1.408       .  A
C335        C344   1.402       .  A
S336        H352   1.401       .  S
S338        H349   1.403       .  S
C340        C341   1.404       .  A
C340        S345   1.807       .  S
C341        C342   1.408       .  A
C341        H346   1.082       .  S
C342        C343   1.418       .  A
C343        C344   1.404       .  A
C343        S347   1.801       .  S
C344        H348   1.084       .  S
S345        H350   1.407       .  S
S347        H351   1.408       .  S
C353        C354   1.399       .  A
C353        C358   1.397       .  A
C353        H363   1.083       .  S
C354        C359   1.478       .  S
C354        C355   1.413       .  A
C355        C356   1.404       .  A
C355        S360   1.803       .  S
C356        C357   1.401       .  A
C356        H361   1.080       .  S
C357        C358   1.412       .  A
C358        S362   1.804       .  S
C359        C364   1.409       .  A
C359        C368   1.403       .  A
S360        H376   1.405       .  S
S362        H373   1.407       .  S
C364        C365   1.402       .  A
C364        S369   1.807       .  S
C365        C366   1.403       .  A
C365        H370   1.083       .  S
C366        C367   1.412       .  A
C367        C368   1.400       .  A
C367        S371   1.804       .  S
C368        H372   1.084       .  S
S369        H374   1.407       .  S
S371        H375   1.407       .  S
C377        C378   1.400       .  A
C377        C382   1.404       .  A
C377        H387   1.083       .  S
C378        C383   1.483       .  S
C378        C379   1.409       .  A
C379        C380   1.402       .  A
C379        S384   1.804       .  S
C380        C381   1.409       .  A
C380        H385   1.083       .  S
C381        C382   1.422       .  A
C382        S386   1.810       .  S
C383        C388   1.405       .  A
C383        C392   1.397       .  A
S384        H400   1.406       .  S
S386        H397   1.407       .  S
C388        C389   1.404       .  A
C388        S393   1.806       .  S
C389        C390   1.412       .  A
C389        H394   1.082       .  S
C390        C391   1.425       .  A
C391        C392   1.405       .  A
C391        S395   1.804       .  S
C392        H396   1.083       .  S
S393        H398   1.407       .  S
S395        H399   1.406       .  S
C401        C402   1.402       .  A
C401        C406   1.405       .  A
C401        H411   1.084       .  S
C402        C407   1.485       .  S
C402        C403   1.411       .  A
C403        C404   1.399       .  A
C403        S408   1.805       .  S
C404        C405   1.409       .  A
C404        H409   1.083       .  S
C405        C406   1.420       .  A
C406        S410   1.798       .  S
C407        C412   1.411       .  A
C407        C416   1.400       .  A
S408        H424   1.405       .  S
S410        H421   1.408       .  S
C412        C413   1.408       .  A
C412        S417   1.805       .  S
C413        C414   1.403       .  A
C413        H418   1.083       .  S
C414        C415   1.415       .  A
C415        C416   1.402       .  A
C415        S419   1.808       .  S
C416        H420   1.083       .  S
S417        H422   1.406       .  S
S419       H1303   1.407       .  S
H423       S1299   1.406       .  S
C425        C426   1.402       .  A
C425        C430   1.400       .  A
C425        H435   1.084       .  S
C426        C431   1.477       .  S
C426        C427   1.410       .  A
C427        C428   1.397       .  A
C427        S432   1.804       .  S
C428        C429   1.403       .  A
C428        H433   1.083       .  S
C429        C430   1.414       .  A
C430        S434   1.803       .  S
C431        C436   1.408       .  A
C431        C440   1.401       .  A
S432        H448   1.405       .  S
S434        H445   1.408       .  S
C436        C437   1.400       .  A
C436        S441   1.808       .  S
C437        C438   1.405       .  A
C437        H442   1.083       .  S
C438        C439   1.417       .  A
C439        C440   1.401       .  A
C439        S443   1.802       .  S
C440        H444   1.084       .  S
S441        H446   1.407       .  S
S443        H447   1.407       .  S
C449        C450   1.401       .  A
C449        C454   1.405       .  A
C449        H459   1.084       .  S
C450        C455   1.488       .  S
C450        C451   1.413       .  A
C451        C452   1.403       .  A
C451        S456   1.805       .  S
C452        C453   1.408       .  A
C452        H457   1.084       .  S
C453        C454   1.421       .  A
C454        S458   1.801       .  S
C455        C460   1.407       .  A
C455        C464   1.398       .  A
S456        H472   1.405       .  S
S458        H469   1.407       .  S
C460        C461   1.407       .  A
C460        S465   1.804       .  S
C461        C462   1.410       .  A
C461        H466   1.083       .  S
C462        C463   1.422       .  A
C463        C464   1.407       .  A
C463        S467   1.801       .  S
C464        H468   1.083       .  S
S465        H470   1.407       .  S
S467        H471   1.406       .  S
C473        C474   1.396       .  A
C473        C478   1.395       .  A
C473        H483   1.084       .  S
C474        C479   1.480       .  S
C474        C475   1.414       .  A
C475        C476   1.405       .  A
C475        S480   1.803       .  S
C476        C477   1.404       .  A
C476        H481   1.084       .  S
C477        C478   1.419       .  A
C478        S482   1.797       .  S
C479        C484   1.411       .  A
C479        C488   1.398       .  A
S480        H496   1.403       .  S
S482        H493   1.405       .  S
C484        C485   1.408       .  A
C484        S489   1.806       .  S
C485        C486   1.404       .  A
C485        H490   1.083       .  S
C486        C487   1.415       .  A
C487        C488   1.397       .  A
C487        S491   1.802       .  S
C488        H492   1.084       .  S
S489        H494   1.407       .  S
S491        H495   1.402       .  S
C497        C498   1.403       .  A
C497        C502   1.406       .  A
C497        H507   1.084       .  S
C498        C503   1.489       .  S
C498        C499   1.413       .  A
C499        C500   1.401       .  A
C499        S504   1.805       .  S
C500        C501   1.406       .  A
C500        H505   1.084       .  S
C501        C502   1.419       .  A
C502        S506   1.802       .  S
C503        C508   1.408       .  A
C503        C512   1.400       .  A
S504        H520   1.405       .  S
S506        H517   1.407       .  S
C508        C509   1.406       .  A
C508        S513   1.806       .  S
C509        C510   1.409       .  A
C509        H514   1.083       .  S
C510        C511   1.420       .  A
C511        C512   1.407       .  A
C511        S515   1.802       .  S
C512        H516   1.083       .  S
S513        H518   1.407       .  S
S515       H1399   1.406       .  S
H519       S1395   1.406       .  S
C521        C522   1.403       .  A
C521        C526   1.406       .  A
C521        H531   1.084       .  S
C522        C527   1.484       .  S
C522        C523   1.410       .  A
C523        C524   1.396       .  A
C523        S528   1.805       .  S
C524        C525   1.408       .  A
C524        H529   1.083       .  S
C525        C526   1.416       .  A
C526        S530   1.794       .  S
C527        C532   1.409       .  A
C527        C536   1.404       .  A
S528        H544   1.406       .  S
S530        H541   1.401       .  S
C532        C533   1.401       .  A
C532        S537   1.808       .  S
C533        C534   1.404       .  A
C533        H538   1.083       .  S
C534        C535   1.415       .  A
C535        C536   1.405       .  A
C535        S539   1.802       .  S
C536        H540   1.084       .  S
S537        H542   1.407       .  S
S539        H543   1.407       .  S
C545        C546   1.404       .  A
C545        C550   1.403       .  A
C545        H555   1.084       .  S
C546        C551   1.489       .  S
C546        C547   1.413       .  A
C547        C548   1.400       .  A
C547        S552   1.804       .  S
C548        C549   1.402       .  A
C548        H553   1.078       .  S
C549        C550   1.418       .  A
C550        S554   1.808       .  S
C551        C556   1.410       .  A
C551        C560   1.404       .  A
S552        H568   1.406       .  S
S554        H565   1.402       .  S
C556        C557   1.407       .  A
C556        S561   1.806       .  S
C557        C558   1.406       .  A
C557        H562   1.082       .  S
C558        C559   1.415       .  A
C559        C560   1.401       .  A
C559        S563   1.803       .  S
C560        H564   1.084       .  S
S561        H566   1.407       .  S
S563        H567   1.408       .  S
C569        C570   1.402       .  A
C569        C574   1.402       .  A
C569        H579   1.084       .  S
C570        C575   1.487       .  S
C570        C571   1.412       .  A
C571        C572   1.404       .  A
C571        S576   1.804       .  S
C572        C573   1.406       .  A
C572        H577   1.077       .  S
C573        C574   1.417       .  A
C574        S578   1.803       .  S
C575        C580   1.410       .  A
C575        C584   1.402       .  A
S576        H592   1.405       .  S
S578        H589   1.408       .  S
C580        C581   1.406       .  A
C580        S585   1.807       .  S
C581        C582   1.406       .  A
C581        H586   1.083       .  S
C582        C583   1.417       .  A
C583        C584   1.404       .  A
C583        S587   1.801       .  S
C584        H588   1.084       .  S
S585        H590   1.407       .  S
S587        H591   1.406       .  S
C593        C598   1.409       .  A
C593       C1474   1.399       .  A
C593        H603   1.083       .  S
C594        C599   1.487       .  S
C594        C595   1.408   1_554  A
C594       C1473   1.399       .  A
C595        C596   1.400       .  A
C595        S600   1.807       .  S
C596        C597   1.416   1_556  A
C596        H601   1.073       .  S
C597       C1478   1.429       .  A
C598       C1477   1.429       .  A
C598        S602   1.812       .  S
C599        C604   1.409       .  A
C599       C1488   1.402   1_554  A
S600        H616   1.406       .  S
S602        H613   1.406       .  S
C604        C605   1.404       .  A
C604        S609   1.807       .  S
C605       C1486   1.407       .  A
C605        H610   1.082       .  S
C606        C607   1.418       .  A
C606       C1485   1.408       .  A
C607        C608   1.403       .  A
C607        S611   1.802       .  S
C608       C1479   1.402       .  A
C608        H612   1.084       .  S
S609        H614   1.407       .  S
S611        H615   1.408       .  S
C617        C622   1.403       .  A
C617       C1498   1.401   1_554  A
C617        H627   1.084       .  S
C618        C623   1.481       .  S
C618        C619   1.410       .  A
C618       C1497   1.401       .  A
C619        C620   1.399       .  A
C619        S624   1.805       .  S
C620        C621   1.408       .  A
C620        H625   1.083       .  S
C621       C1502   1.419       .  A
C622       C1501   1.420   1_554  A
C622        S626   1.802       .  S
C623        C628   1.402       .  A
C623       C1512   1.393       .  A
S624        H640   1.404       .  S
S626        H637   1.408       .  S
C628        C629   1.404       .  A
C628        S633   1.809       .  S
C629        C630   1.418       .  A
C629        H634   1.070       .  S
C630       C1511   1.430       .  A
C631        C632   1.408       .  A
C631       C1510   1.427       .  A
C631        S635   1.804       .  S
C632       C1503   1.397       .  A
C632        H636   1.083       .  S
S633        H638   1.406       .  S
S635        H639   1.406       .  S
C641        C646   1.405       .  A
C641       C1522   1.405       .  A
C641        H651   1.084       .  S
C642        C647   1.491       .  S
C642        C643   1.413   1_556  A
C642       C1521   1.405       .  A
C643        C644   1.401       .  A
C643        S648   1.805       .  S
C644       C1525   1.407   1_554  A
C644        H649   1.084       .  S
C645        C646   1.416       .  A
C645       C1524   1.406       .  A
C646        S650   1.802       .  S
C647        C652   1.407   1_556  A
C647       C1536   1.399       .  A
S648        H664   1.405       .  S
S650        H661   1.407       .  S
C652        C653   1.407       .  A
C652        S657   1.807       .  S
C653       C1534   1.415   1_554  A
C653        H658   1.073       .  S
C654        C655   1.427       .  A
C654       C1533   1.415       .  A
C655        C656   1.405       .  A
C655        S659   1.812       .  S
C656       C1527   1.399       .  A
C656        H660   1.083       .  S
S657        H662   1.406       .  S
S659        H663   1.407       .  S
C665        C670   1.408       .  A
C665       C1546   1.400   1_554  A
C665        H675   1.083       .  S
C666        C671   1.484       .  S
C666        C667   1.406       .  A
C666       C1545   1.399       .  A
C667        C668   1.400       .  A
C667        S672   1.805       .  S
C668        C669   1.416       .  A
C668        H673   1.074       .  S
C669       C1011   1.549       .  S
C669       C1550   1.427       .  A
C670       C1549   1.427       .  A
C670        S674   1.812       .  S
C671        C676   1.409       .  A
C671       C1560   1.403       .  A
S672        H688   1.405       .  S
S674        H685   1.406       .  S
C676        C677   1.403       .  A
C676        S681   1.807       .  S
C677        C678   1.407       .  A
C677        H682   1.083       .  S
C678       C1559   1.414       .  A
C679        C680   1.404       .  A
C679       C1558   1.415   1_554  A
C679        S683   1.801       .  S
C680       C1551   1.403   1_554  A
C680        H684   1.084       .  S
S681        H686   1.407       .  S
S683        H687   1.407       .  S
C689        C694   1.399       .  A
C689       C1570   1.401   1_554  A
C689        H699   1.084       .  S
C690        C695   1.480       .  S
C690        C691   1.412       .  A
C690       C1569   1.401       .  A
C691        C692   1.401       .  A
C691        S696   1.805       .  S
C692        C693   1.406       .  A
C692        H697   1.084       .  S
C693       C1574   1.416       .  A
C694       C1573   1.415   1_554  A
C694        S698   1.803       .  S
C695        C700   1.409       .  A
C695       C1584   1.401       .  A
S696        H712   1.405       .  S
S698        H709   1.408       .  S
C700        C701   1.403       .  A
C700        S705   1.806       .  S
C701        C702   1.405       .  A
C701        H706   1.083       .  S
C702       C1583   1.415       .  A
C703        C704   1.398       .  A
C703       C1582   1.414   1_554  A
C703        S707   1.803       .  S
C704       C1575   1.401   1_554  A
C704        H708   1.084       .  S
S705        H710   1.407       .  S
S707        H711   1.404       .  S
C713        C718   1.409       .  A
C713       C1594   1.398       .  A
C713        H723   1.082       .  S
C714        C719   1.488       .  S
C714        C715   1.408       .  A
C714       C1593   1.398       .  A
C715        C716   1.400       .  A
C715        S720   1.808       .  S
C716        C717   1.419       .  A
C716        H721   1.072       .  S
C717       C1598   1.427       .  A
C718       C1597   1.429       .  A
C718        S722   1.806       .  S
C719        C724   1.411       .  A
C719       C1608   1.404       .  A
S720        H736   1.406       .  S
S722        H733   1.406       .  S
C724        C725   1.403       .  A
C724        S729   1.808       .  S
C725        C726   1.408       .  A
C725        H730   1.082       .  S
C726       C1607   1.416       .  A
C727        C728   1.404       .  A
C727       C1606   1.419   1_554  A
C727        S731   1.802       .  S
C728       C1599   1.402       .  A
C728        H732   1.084       .  S
S729        H734   1.407       .  S
S731        H735   1.408       .  S
C737        C742   1.411       .  A
C737       C1618   1.401   1_554  A
C737        H747   1.083       .  S
C738        C743   1.487       .  S
C738        C739   1.407       .  A
C738       C1617   1.400       .  A
C739        C740   1.400       .  A
C739        S744   1.806       .  S
C740        C741   1.417       .  A
C740        H745   1.073       .  S
C741       C1622   1.427       .  A
C742       C1621   1.427   1_554  A
C742        S746   1.810       .  S
C743        C748   1.408       .  A
C743       C1632   1.405       .  A
S744        H760   1.405       .  S
S746        H757   1.406       .  S
C748        C749   1.402       .  A
C748        S753   1.808       .  S
C749        C750   1.408       .  A
C749        H754   1.083       .  S
C750       C1631   1.415       .  A
C751        C752   1.406       .  A
C751       C1630   1.416   1_554  A
C751        S755   1.802       .  S
C752       C1623   1.404   1_554  A
C752        H756   1.084       .  S
S753        H758   1.407       .  S
S755        H759   1.408       .  S
C761        C766   1.399       .  A
C761       C1642   1.402   1_554  A
C761        H771   1.084       .  S
C762        C767   1.474       .  S
C762        C763   1.411       .  A
C762       C1641   1.401       .  A
C763        C764   1.397       .  A
C763        S768   1.805       .  S
C764        C765   1.404       .  A
C764        H769   1.084       .  S
C765       C1646   1.415       .  A
C766       C1645   1.414   1_554  A
C766        S770   1.803       .  S
C767        C772   1.408       .  A
C767       C1656   1.399       .  A
S768        H784   1.405       .  S
S770        H781   1.408       .  S
C772        C773   1.401       .  A
C772        S777   1.807       .  S
C773        C774   1.405       .  A
C773        H778   1.083       .  S
C774       C1655   1.416       .  A
C775        C776   1.397       .  A
C775       C1654   1.416   1_554  A
C775        S779   1.803       .  S
C776       C1647   1.399   1_554  A
C776        H780   1.084       .  S
S777        H782   1.407       .  S
S779        H783   1.407       .  S
C785        C790   1.408       .  A
C785       C1666   1.400   1_554  A
C785        H795   1.083       .  S
C786        C791   1.492       .  S
C786        C787   1.410       .  A
C786       C1665   1.400       .  A
C787        C788   1.403       .  A
C787        S792   1.806       .  S
C788       C1669   1.416       .  A
C788        H793   1.075       .  S
C789        C790   1.427   1_556  A
C789       C1668   1.416       .  A
C790        S794   1.811       .  S
C791        C796   1.410       .  A
C791       C1680   1.404       .  A
S792        H808   1.406       .  S
S794        H805   1.406       .  S
C796        C797   1.404       .  A
C796        S801   1.808       .  S
C797       C1678   1.409       .  A
C797        H802   1.082       .  S
C798        C799   1.418   1_556  A
C798       C1677   1.408       .  A
C799        C800   1.405       .  A
C799        S803   1.802       .  S
C800       C1671   1.404   1_554  A
C800        H804   1.084       .  S
S801        H806   1.407       .  S
S803        H807   1.408       .  S
C809        C814   1.408       .  A
C809       C1690   1.402       .  A
C809        H819   1.083       .  S
C810        C815   1.489       .  S
C810        C811   1.407       .  A
C810       C1689   1.401   1_554  A
C811        C812   1.400       .  A
C811        S816   1.805       .  S
C812       C1693   1.416       .  A
C812        H817   1.076       .  S
C813        C814   1.425       .  A
C813       C1692   1.416       .  A
C814        S818   1.811       .  S
C815        C820   1.410       .  A
C815       C1704   1.403   1_554  A
S816        H832   1.406       .  S
S818        H829   1.406       .  S
C820        C821   1.405       .  A
C820        S825   1.807       .  S
C821       C1702   1.408       .  A
C821        H826   1.082       .  S
C822        C823   1.418       .  A
C822       C1701   1.409       .  A
C823        C824   1.404       .  A
C823        S827   1.801       .  S
C824       C1695   1.404       .  A
C824        H828   1.084       .  S
S825        H830   1.406       .  S
S827        H831   1.408       .  S
C833        C838   1.401       .  A
C833       C1714   1.402   1_554  A
C833        H843   1.084       .  S
C834        C839   1.478       .  S
C834        C835   1.415       .  A
C834       C1713   1.401       .  A
C835        C836   1.401       .  A
C835        S840   1.808       .  S
C836        C837   1.404       .  A
C836        H841   1.084       .  S
C837        C892   1.479       .  S
C837       C1718   1.415       .  A
C838       C1717   1.415   1_554  A
C838        S842   1.802       .  S
C839        C844   1.407       .  A
C839       C1728   1.402       .  A
S840        H856   1.403       .  S
S842        H853   1.405       .  S
C844        C845   1.402       .  A
C844        S849   1.806       .  S
C845        C846   1.406       .  A
C845        H850   1.083       .  S
C846       C1727   1.415       .  A
C847        C848   1.400       .  A
C847       C1726   1.413   1_554  A
C847        S851   1.803       .  S
C848       C1719   1.402   1_554  A
C848        H852   1.084       .  S
S849        H854   1.407       .  S
S851        H855   1.407   1_565  S
C857        C862   1.399       .  A
C857       C1738   1.402       .  A
C857        H867   1.084       .  S
C858        C863   1.479       .  S
C858        C859   1.411       .  A
C858       C1737   1.402   1_554  A
C859        C860   1.399       .  A
C859        S864   1.804       .  S
C860       C1741   1.405   1_554  A
C860        H865   1.084       .  S
C861        C862   1.414       .  A
C861       C1740   1.404       .  A
C862        S866   1.803       .  S
C863        C868   1.409       .  A
C863       C1752   1.399   1_554  A
S864        H880   1.405       .  S
S866        H877   1.408   1_565  S
C868        C869   1.405       .  A
C868        S873   1.806       .  S
C869       C1750   1.406       .  A
C869        H874   1.083       .  S
C870        C871   1.415       .  A
C870       C1749   1.405       .  A
C871        C872   1.396       .  A
C871        S875   1.804       .  S
C872       C1743   1.399       .  A
C872        H876   1.084       .  S
S873        H878   1.407       .  S
S875        H879   1.407       .  S
O881        V889   1.902       .  S
O881        C891   1.265   1_556  A
O882        V889   1.902   1_655  S
O883        V889   1.898       .  S
O883        C893   1.264   1_556  A
O884        V889   1.902   1_655  S
O885        V890   1.907   1_655  S
O885        C894   1.266       .  A
O886        V890   1.904       .  S
O887        V890   1.898   1_655  S
O887        C892   1.264       .  A
O888        V890   1.906       .  S
C891       C1702   1.491       .  S
C893       C1750   1.481       .  S
C894       C1678   1.494       .  S
O895        V903   1.911       .  S
O896        V903   1.906   1_565  S
O897        V903   1.895       .  S
O898        V903   1.901   1_565  S
O899        V904   1.906   1_565  S
O899        C908   1.267       .  A
O900        V904   1.904       .  S
O900        C907   1.265       .  A
O901        V904   1.900   1_565  S
O901        C906   1.264       .  A
O902        V904   1.903       .  S
O902        C905   1.266       .  A
C905       C1630   1.491       .  S
C906       C1726   1.477       .  S
C907       C1654   1.479       .  S
C908       C1606   1.494       .  S
O909        V917   1.908       .  S
O909        C919   1.266       .  A
O910        V917   1.903   1_455  S
O910        C920   1.265       .  A
O911        V917   1.895       .  S
O911        C921   1.264       .  A
O912        V917   1.900   1_455  S
O912        C922   1.265       .  A
O913        V918   1.902       .  S
O914        V918   1.899   1_655  S
O915        V918   1.900       .  S
O916        V918   1.903   1_655  S
C919       C1525   1.489       .  S
C920       C1582   1.475       .  S
C921       C1645   1.476       .  S
C922       C1558   1.487       .  S
O923        V931   1.906   1_565  S
O924        V931   1.900       .  S
O925        V931   1.894   1_565  S
O926        V931   1.897       .  S
O927        V932   1.905       .  S
O927        C936   1.267       .  A
O928        V932   1.902   1_565  S
O928        C935   1.265       .  A
O929        V932   1.898       .  S
O929        C934   1.264       .  A
O930        V932   1.901   1_565  S
O930        C933   1.265   1_556  A
C933       C1486   1.489       .  S
C934       C1573   1.480       .  S
C935       C1741   1.477       .  S
C936       C1501   1.492       .  S
C937        C938   1.531   1_554  S
C937        C943   1.537       .  S
C937       C1693   1.551       .  S
C938        H945   1.085       .  S
C938        C939   1.370       .  D
C939        C940   1.549   1_556  S
C939       C1453   1.500       .  S
C940        C944   1.553       .  S
C940        H946   1.107       .  S
C941        H947   1.081       .  S
C941        C942   1.361       .  D
C942       C1429   1.482       .  S
C943        H948   1.080       .  S
C943        C944   1.381       .  D
C949        C950   1.528       .  S
C949        C955   1.540       .  S
C949       C1477   1.552       .  S
C950        H957   1.087       .  S
C950        C951   1.363       .  D
C951        C952   1.552       .  S
C951       C1405   1.496       .  S
C952        C956   1.558       .  S
C952        H958   1.105       .  S
C953        H959   1.086       .  S
C953        C954   1.370       .  D
C954       C1390   1.510       .  S
C955        H960   1.072       .  S
C955        C956   1.374       .  D
O961        V969   1.910       .  S
O961        C971   1.267       .  A
O962        V969   1.910       .  S
O962        C972   1.267       .  A
O963        V969   1.907       .  S
O963        C973   1.266       .  A
O964        V969   1.910       .  S
O964        C974   1.266       .  A
O965        V970   1.894       .  S
O965        C974   1.263       .  A
O966        V970   1.896       .  S
O966        C973   1.264       .  A
O967        V970   1.904       .  S
O967        C972   1.265       .  A
O968        V970   1.904       .  S
O968        C971   1.266       .  A
V969        V970   2.084       .  T
C971       C1333   1.492       .  S
C972       C1381   1.487       .  S
C973       C1414   1.481       .  S
C974       C1366   1.479       .  S
C975        C976   1.536   1_554  S
C975        C981   1.540       .  S
C975       C1597   1.558       .  S
C976        H983   1.086       .  S
C976        C977   1.367       .  D
C977        C978   1.543       .  S
C977       C1357   1.491       .  S
C978        C982   1.553       .  S
C978        H984   1.106       .  S
C979        H985   1.086       .  S
C979        C980   1.374       .  D
C980       C1342   1.510       .  S
C981        H986   1.071       .  S
C981        C982   1.371   1_554  D
C987        C988   1.539       .  S
C987        C993   1.533       .  S
C987       C1669   1.552       .  S
C988        H995   1.086       .  S
C988        C989   1.369       .  D
C989        C990   1.537       .  S
C989       C1309   1.485       .  S
C990        C994   1.548       .  S
C990        H996   1.108       .  S
C991        H997   1.081       .  S
C991        C992   1.362       .  D
C992       C1294   1.486       .  S
C993        H998   1.081       .  S
C993        C994   1.378       .  D
C999       C1000   1.539       .  S
C999       C1005   1.540   1_556  S
C999       C1510   1.555       .  S
C1000      H1007   1.086       .  S
C1000      C1001   1.375       .  D
C1001      C1002   1.548       .  S
C1001      C1270   1.510       .  S
C1002      C1006   1.548   1_556  S
C1002      H1008   1.103       .  S
C1003      H1009   1.086       .  S
C1003      C1004   1.367       .  D
C1004      C1237   1.490       .  S
C1005      H1010   1.073       .  S
C1005      C1006   1.367       .  D
C1006      C1018   1.510       .  S
C1011      C1012   1.527       .  S
C1011      C1017   1.533       .  S
C1012      H1019   1.087       .  S
C1012      C1013   1.360       .  D
C1013      C1014   1.549       .  S
C1013      C1213   1.481       .  S
C1014      H1020   1.102       .  S
C1015      H1021   1.080       .  S
C1015      C1016   1.371       .  D
C1016      C1198   1.497       .  S
C1017      H1022   1.082       .  S
O1023      V1031   1.897       .  S
O1023      C1033   1.263       .  A
O1024      V1031   1.897       .  S
O1024      C1034   1.263       .  A
O1025      V1031   1.908       .  S
O1025      C1035   1.267       .  A
O1026      V1031   1.909       .  S
O1026      C1036   1.267       .  A
O1027      V1032   1.900       .  S
O1027      C1036   1.264       .  A
O1028      V1032   1.897       .  S
O1028      C1035   1.264       .  A
O1029      V1032   1.900       .  S
O1029      C1034   1.266       .  A
O1030      V1032   1.902       .  S
O1030      C1033   1.266       .  A
V1031      V1032   2.086       .  T
C1033      C1438   1.477       .  S
C1034      C1189   1.482       .  S
C1035      C1222   1.485       .  S
C1036      C1462   1.484       .  S
O1037      V1045   1.902       .  S
O1037      C1047   1.264       .  A
O1038      V1045   1.904       .  S
O1038      C1048   1.265       .  A
O1039      V1045   1.911       .  S
O1039      C1049   1.268       .  A
O1040      V1045   1.906       .  S
O1040      C1050   1.265       .  A
O1041      V1046   1.900       .  S
O1041      C1050   1.265       .  A
O1042      V1046   1.895       .  S
O1042      C1049   1.262       .  A
O1043      V1046   1.901       .  S
O1043      C1048   1.265       .  A
O1044      V1046   1.901       .  S
O1044      C1047   1.265       .  A
V1045      V1046   2.084       .  T
C1047      C1141   1.479       .  S
C1048      C1246   1.478       .  S
C1049      C1261   1.496       .  S
C1050      C1165   1.483       .  S
C1051      C1057   1.539       .  S
C1051      C1055   1.539       .  S
C1051      C1621   1.554       .  S
C1052      H1059   1.085       .  S
C1052      C1053   1.370       .  D
C1053      C1174   1.499       .  S
C1054      C1058   1.549       .  S
C1054      C1056   1.550       .  S
C1054      H1060   1.107       .  S
C1055      H1061   1.080       .  S
C1055      C1056   1.361       .  D
C1056      C1150   1.491       .  S
C1057      C1058   1.379       .  D
C1058      C1070   1.512       .  S
C1063      C1064   1.533       .  S
C1063      C1069   1.530       .  S
C1063      C1534   1.551       .  S
C1064      H1071   1.087       .  S
C1064      C1065   1.365       .  D
C1065      C1066   1.543       .  S
C1065      C1117   1.490       .  S
C1066      C1070   1.557       .  S
C1066      H1072   1.108       .  S
C1067      H1073   1.080       .  S
C1067      C1068   1.366       .  D
C1068      C1102   1.487       .  S
C1069      H1074   1.082       .  S
C1069      C1070   1.372       .  D
O1075      V1083   1.906       .  S
O1075      C1085   1.264       .  A
O1076      V1083   1.910       .  S
O1076      C1086   1.267       .  A
O1077      V1083   1.906       .  S
O1077      C1087   1.265       .  A
O1078      V1083   1.906       .  S
O1078      C1088   1.266       .  A
O1079      V1084   1.896       .  S
O1079      C1088   1.263       .  A
O1080      V1084   1.898       .  S
O1080      C1087   1.265       .  A
O1081      V1084   1.904       .  S
O1081      C1086   1.266       .  A
O1082      V1084   1.904       .  S
O1082      C1085   1.267       .  A
V1083      V1084   2.084       .  T
C1085      C1285   1.499       .  S
C1086      C1093   1.493       .  S
C1087      C1126   1.487       .  S
C1088      C1318   1.480       .  S
C1089      C1090   1.403       .  A
C1089      C1094   1.402       .  A
C1089      H1099   1.084       .  S
C1090      C1095   1.489       .  S
C1090      C1091   1.412       .  A
C1091      C1092   1.405       .  A
C1091      S1096   1.803       .  S
C1092      C1093   1.408       .  A
C1092      H1097   1.084       .  S
C1093      C1094   1.418       .  A
C1094      S1098   1.803       .  S
C1095      C1100   1.411       .  A
C1095      C1104   1.403       .  A
S1096      H1112   1.406       .  S
S1098      H1109   1.407       .  S
C1100      C1101   1.407       .  A
C1100      S1105   1.806       .  S
C1101      C1102   1.404       .  A
C1101      H1106   1.083       .  S
C1102      C1103   1.413       .  A
C1103      C1104   1.402       .  A
C1103      S1107   1.803       .  S
C1104      H1108   1.084       .  S
S1105      H1110   1.407       .  S
S1107      H1111   1.406       .  S
C1113      C1114   1.404       .  A
C1113      C1118   1.405       .  A
C1113      H1123   1.084       .  S
C1114      C1119   1.485       .  S
C1114      C1115   1.411       .  A
C1115      C1116   1.397       .  A
C1115      S1120   1.805       .  S
C1116      C1117   1.406       .  A
C1116      H1121   1.084       .  S
C1117      C1118   1.413       .  A
C1118      S1122   1.798       .  S
C1119      C1124   1.410       .  A
C1119      C1128   1.402       .  A
S1120      H1136   1.406       .  S
S1122      H1133   1.404       .  S
C1124      C1125   1.402       .  A
C1124      S1129   1.808       .  S
C1125      C1126   1.406       .  A
C1125      H1130   1.083       .  S
C1126      C1127   1.417       .  A
C1127      C1128   1.407       .  A
C1127      S1131   1.808       .  S
C1128      H1132   1.083       .  S
S1129      H1134   1.407       .  S
S1131      H1135   1.407       .  S
C1137      C1138   1.403       .  A
C1137      C1142   1.399       .  A
C1137      H1147   1.084       .  S
C1138      C1143   1.481       .  S
C1138      C1139   1.411       .  A
C1139      C1140   1.402       .  A
C1139      S1144   1.804       .  S
C1140      C1141   1.406       .  A
C1140      H1145   1.084       .  S
C1141      C1142   1.413       .  A
C1142      S1146   1.804       .  S
C1143      C1148   1.407       .  A
C1143      C1152   1.400       .  A
S1144      H1160   1.405       .  S
S1146      H1157   1.407       .  S
C1148      C1149   1.401       .  A
C1148      S1153   1.806       .  S
C1149      C1150   1.401       .  A
C1149      H1154   1.076       .  S
C1150      C1151   1.420       .  A
C1151      C1152   1.401       .  A
C1151      S1155   1.807       .  S
C1152      H1156   1.084       .  S
S1153      H1158   1.406       .  S
S1155      H1159   1.404       .  S
C1161      C1162   1.402       .  A
C1161      C1166   1.403       .  A
C1161      H1171   1.084       .  S
C1162      C1167   1.482       .  S
C1162      C1163   1.413       .  A
C1163      C1164   1.400       .  A
C1163      S1168   1.805       .  S
C1164      C1165   1.404       .  A
C1164      H1169   1.084       .  S
C1165      C1166   1.416       .  A
C1166      S1170   1.799       .  S
C1167      C1172   1.407       .  A
C1167      C1176   1.400       .  A
S1168      H1184   1.405       .  S
S1170      H1181   1.407       .  S
C1172      C1173   1.404       .  A
C1172      S1177   1.806       .  S
C1173      C1174   1.405       .  A
C1173      H1178   1.075       .  S
C1174      C1175   1.419       .  A
C1175      C1176   1.401       .  A
C1175      S1179   1.802       .  S
C1176      H1180   1.084       .  S
S1177      H1182   1.407       .  S
S1179      H1183   1.407       .  S
C1185      C1186   1.400       .  A
C1185      C1190   1.400       .  A
C1185      H1195   1.084       .  S
C1186      C1191   1.476       .  S
C1186      C1187   1.413       .  A
C1187      C1188   1.398       .  A
C1187      S1192   1.808       .  S
C1188      C1189   1.404       .  A
C1188      H1193   1.084       .  S
C1189      C1190   1.418       .  A
C1190      S1194   1.802       .  S
C1191      C1196   1.405       .  A
C1191      C1200   1.400       .  A
S1192      H1208   1.402       .  S
S1194      H1205   1.408       .  S
C1196      C1197   1.399       .  A
C1196      S1201   1.807       .  S
C1197      C1198   1.410       .  A
C1197      H1202   1.083       .  S
C1198      C1199   1.417       .  A
C1199      C1200   1.405       .  A
C1199      S1203   1.802       .  S
C1200      H1204   1.083       .  S
S1201      H1206   1.407       .  S
S1203      H1207   1.406       .  S
C1209      C1210   1.406       .  A
C1209      C1214   1.405       .  A
C1209      H1219   1.084       .  S
C1210      C1215   1.485       .  S
C1210      C1211   1.411       .  A
C1211      C1212   1.397       .  A
C1211      S1216   1.804       .  S
C1212      C1213   1.403       .  A
C1212      H1217   1.084       .  S
C1213      C1214   1.412       .  A
C1214      S1218   1.805       .  S
C1215      C1220   1.409       .  A
C1215      C1224   1.403       .  A
S1216      H1232   1.406       .  S
S1218      H1229   1.403       .  S
C1220      C1221   1.404       .  A
C1220      S1225   1.807       .  S
C1221      C1222   1.407       .  A
C1221      H1226   1.083       .  S
C1222      C1223   1.415       .  A
C1223      C1224   1.403       .  A
C1223      S1227   1.802       .  S
C1224      H1228   1.084       .  S
S1225      H1230   1.407       .  S
S1227      H1231   1.408       .  S
C1233      C1234   1.396       .  A
C1233      C1238   1.397       .  A
C1233      H1243   1.083       .  S
C1234      C1239   1.481       .  S
C1234      C1235   1.415       .  A
C1235      C1236   1.407       .  A
C1235      S1240   1.803       .  S
C1236      C1237   1.404       .  A
C1236      H1241   1.082       .  S
C1237      C1238   1.415       .  A
C1238      S1242   1.801       .  S
C1239      C1244   1.409       .  A
C1239      C1248   1.404       .  A
S1240      H1256   1.404       .  S
S1242      H1253   1.406       .  S
C1244      C1245   1.403       .  A
C1244      S1249   1.807       .  S
C1245      C1246   1.404       .  A
C1245      H1250   1.083       .  S
C1246      C1247   1.414       .  A
C1247      C1248   1.403       .  A
C1247      S1251   1.803       .  S
C1248      H1252   1.084       .  S
S1249      H1254   1.407       .  S
S1251      H1255   1.407       .  S
C1257      C1258   1.400       .  A
C1257      C1262   1.399       .  A
C1257      H1267   1.084       .  S
C1258      C1263   1.487       .  S
C1258      C1259   1.411       .  A
C1259      C1260   1.404       .  A
C1259      S1264   1.804       .  S
C1260      C1261   1.410       .  A
C1260      H1265   1.083       .  S
C1261      C1262   1.422       .  A
C1262      S1266   1.801       .  S
C1263      C1268   1.407       .  A
C1263      C1272   1.398       .  A
S1264      H1280   1.406       .  S
S1266      H1277   1.408       .  S
C1268      C1269   1.404       .  A
C1268      S1273   1.807       .  S
C1269      C1270   1.411       .  A
C1269      H1274   1.082       .  S
C1270      C1271   1.426       .  A
C1271      C1272   1.406       .  A
C1271      S1275   1.803       .  S
C1272      H1276   1.083       .  S
S1273      H1278   1.406       .  S
S1275      H1279   1.407       .  S
C1281      C1282   1.402       .  A
C1281      C1286   1.405       .  A
C1281      H1291   1.084       .  S
C1282      C1287   1.489       .  S
C1282      C1283   1.412       .  A
C1283      C1284   1.400       .  A
C1283      S1288   1.805       .  S
C1284      C1285   1.409       .  A
C1284      H1289   1.083       .  S
C1285      C1286   1.423       .  A
C1286      S1290   1.800       .  S
C1287      C1292   1.413       .  A
C1287      C1296   1.401       .  A
S1288      H1304   1.406       .  S
S1290      H1301   1.406       .  S
C1292      C1293   1.409       .  A
C1292      S1297   1.806       .  S
C1293      C1294   1.403       .  A
C1293      H1298   1.083       .  S
C1294      C1295   1.414       .  A
C1295      C1296   1.402       .  A
C1295      S1299   1.808       .  S
C1296      H1300   1.083       .  S
S1297      H1302   1.407       .  S
C1305      C1306   1.402       .  A
C1305      C1310   1.400       .  A
C1305      H1315   1.084       .  S
C1306      C1311   1.479       .  S
C1306      C1307   1.411       .  A
C1307      C1308   1.398       .  A
C1307      S1312   1.804       .  S
C1308      C1309   1.403       .  A
C1308      H1313   1.083       .  S
C1309      C1310   1.414       .  A
C1310      S1314   1.803       .  S
C1311      C1316   1.410       .  A
C1311      C1320   1.401       .  A
S1312      H1328   1.405       .  S
S1314      H1325   1.408       .  S
C1316      C1317   1.401       .  A
C1316      S1321   1.808       .  S
C1317      C1318   1.404       .  A
C1317      H1322   1.083       .  S
C1318      C1319   1.416       .  A
C1319      C1320   1.402       .  A
C1319      S1323   1.801       .  S
C1320      H1324   1.084       .  S
S1321      H1326   1.407       .  S
S1323      H1327   1.407       .  S
C1329      C1330   1.402       .  A
C1329      C1334   1.405       .  A
C1329      H1339   1.084       .  S
C1330      C1335   1.489       .  S
C1330      C1331   1.414       .  A
C1331      C1332   1.403       .  A
C1331      S1336   1.805       .  S
C1332      C1333   1.407       .  A
C1332      H1337   1.084       .  S
C1333      C1334   1.419       .  A
C1334      S1338   1.802       .  S
C1335      C1340   1.407       .  A
C1335      C1344   1.399       .  A
S1336      H1352   1.405       .  S
S1338      H1349   1.406       .  S
C1340      C1341   1.406       .  A
C1340      S1345   1.805       .  S
C1341      C1342   1.411       .  A
C1341      H1346   1.082       .  S
C1342      C1343   1.424       .  A
C1343      C1344   1.408       .  A
C1343      S1347   1.802       .  S
C1344      H1348   1.083       .  S
S1345      H1350   1.407       .  S
S1347      H1351   1.406       .  S
C1353      C1354   1.396       .  A
C1353      C1358   1.393       .  A
C1353      H1363   1.085       .  S
C1354      C1359   1.478       .  S
C1354      C1355   1.413       .  A
C1355      C1356   1.406       .  A
C1355      S1360   1.803       .  S
C1356      C1357   1.407       .  A
C1356      H1361   1.084       .  S
C1357      C1358   1.418       .  A
C1358      S1362   1.798       .  S
C1359      C1364   1.410       .  A
C1359      C1368   1.398       .  A
S1360      H1376   1.404       .  S
S1362      H1373   1.406       .  S
C1364      C1365   1.409       .  A
C1364      S1369   1.805       .  S
C1365      C1366   1.406       .  A
C1365      H1370   1.083       .  S
C1366      C1367   1.415       .  A
C1367      C1368   1.395       .  A
C1367      S1371   1.804       .  S
C1368      H1372   1.084       .  S
S1369      H1374   1.407       .  S
S1371      H1375   1.403       .  S
C1377      C1378   1.403       .  A
C1377      C1382   1.404       .  A
C1377      H1387   1.084       .  S
C1378      C1383   1.489       .  S
C1378      C1379   1.414       .  A
C1379      C1380   1.403       .  A
C1379      S1384   1.804       .  S
C1380      C1381   1.405       .  A
C1380      H1385   1.084       .  S
C1381      C1382   1.417       .  A
C1382      S1386   1.802       .  S
C1383      C1388   1.407       .  A
C1383      C1392   1.399       .  A
S1384      H1400   1.405       .  S
S1386      H1397   1.407       .  S
C1388      C1389   1.406       .  A
C1388      S1393   1.807       .  S
C1389      C1390   1.411       .  A
C1389      H1394   1.082       .  S
C1390      C1391   1.423       .  A
C1391      C1392   1.408       .  A
C1391      S1395   1.801       .  S
C1392      H1396   1.083       .  S
S1393      H1398   1.407       .  S
C1401      C1402   1.403       .  A
C1401      C1406   1.405       .  A
C1401      H1411   1.084       .  S
C1402      C1407   1.484       .  S
C1402      C1403   1.411       .  A
C1403      C1404   1.396       .  A
C1403      S1408   1.805       .  S
C1404      C1405   1.409       .  A
C1404      H1409   1.083       .  S
C1405      C1406   1.414       .  A
C1406      S1410   1.794       .  S
C1407      C1412   1.410       .  A
C1407      C1416   1.403       .  A
S1408      H1424   1.405       .  S
S1410      H1421   1.402       .  S
C1412      C1413   1.402       .  A
C1412      S1417   1.807       .  S
C1413      C1414   1.405       .  A
C1413      H1418   1.083       .  S
C1414      C1415   1.415       .  A
C1415      C1416   1.403       .  A
C1415      S1419   1.802       .  S
C1416      H1420   1.084       .  S
S1417      H1422   1.407       .  S
S1419      H1423   1.407       .  S
C1425      C1426   1.402       .  A
C1425      C1430   1.400       .  A
C1425      H1435   1.084       .  S
C1426      C1431   1.482       .  S
C1426      C1427   1.411       .  A
C1427      C1428   1.397       .  A
C1427      S1432   1.804       .  S
C1428      C1429   1.401       .  A
C1428      H1433   1.077       .  S
C1429      C1430   1.417       .  A
C1430      S1434   1.808       .  S
C1431      C1436   1.410       .  A
C1431      C1440   1.402       .  A
S1432      H1448   1.406       .  S
S1434      H1445   1.402       .  S
C1436      C1437   1.405       .  A
C1436      S1441   1.806       .  S
C1437      C1438   1.406       .  A
C1437      H1442   1.082       .  S
C1438      C1439   1.413       .  A
C1439      C1440   1.397       .  A
C1439      S1443   1.803       .  S
C1440      H1444   1.084       .  S
S1441      H1446   1.407       .  S
S1443      H1447   1.407       .  S
C1449      C1450   1.400       .  A
C1449      C1454   1.400       .  A
C1449      H1459   1.084       .  S
C1450      C1455   1.483       .  S
C1450      C1451   1.411       .  A
C1451      C1452   1.402       .  A
C1451      S1456   1.803       .  S
C1452      C1453   1.407       .  A
C1452      H1457   1.078       .  S
C1453      C1454   1.419       .  A
C1454      S1458   1.804       .  S
C1455      C1460   1.410       .  A
C1455      C1464   1.401       .  A
S1456      H1472   1.405       .  S
S1458      H1469   1.407       .  S
C1460      C1461   1.405       .  A
C1460      S1465   1.807       .  S
C1461      C1462   1.406       .  A
C1461      H1466   1.083       .  S
C1462      C1463   1.416       .  A
C1463      C1464   1.402       .  A
C1463      S1467   1.801       .  S
C1464      H1468   1.084       .  S
S1465      H1470   1.407       .  S
S1467      H1471   1.406       .  S
C1473      C1478   1.409       .  A
C1473      H1483   1.083       .  S
C1474      C1479   1.488       .  S
C1474      C1475   1.409       .  A
C1475      C1476   1.400       .  A
C1475      S1480   1.807       .  S
C1476      C1477   1.416       .  A
C1476      H1481   1.074       .  S
C1478      S1482   1.811       .  S
C1479      C1484   1.410       .  A
S1480      H1496   1.406       .  S
S1482      H1493   1.406       .  S
C1484      C1485   1.405       .  A
C1484      S1489   1.807       .  S
C1485      H1490   1.082       .  S
C1486      C1487   1.417   1_554  A
C1487      C1488   1.403       .  A
C1487      S1491   1.802       .  S
C1488      H1492   1.084       .  S
S1489      H1494   1.407       .  S
S1491      H1495   1.408       .  S
C1497      C1502   1.401       .  A
C1497      H1507   1.084       .  S
C1498      C1503   1.483       .  S
C1498      C1499   1.411       .  A
C1499      C1500   1.400       .  A
C1499      S1504   1.805       .  S
C1500      C1501   1.408       .  A
C1500      H1505   1.083       .  S
C1502      S1506   1.802       .  S
C1503      C1508   1.403       .  A
S1504      H1520   1.405       .  S
S1506      H1517   1.408       .  S
C1508      C1509   1.401       .  A
C1508      S1513   1.810       .  S
C1509      C1510   1.418       .  A
C1509      H1514   1.070       .  S
C1511      C1512   1.405       .  A
C1511      S1515   1.804       .  S
C1512      H1516   1.083       .  S
S1513      H1518   1.406       .  S
S1515      H1519   1.406       .  S
C1521      C1526   1.407       .  A
C1521      H1531   1.084       .  S
C1522      C1527   1.488       .  S
C1522      C1523   1.413       .  A
C1523      C1524   1.400       .  A
C1523      S1528   1.805       .  S
C1524      H1529   1.084       .  S
C1525      C1526   1.415       .  A
C1526      S1530   1.802       .  S
C1527      C1532   1.406       .  A
S1528      H1544   1.406       .  S
S1530      H1541   1.407       .  S
C1532      C1533   1.405       .  A
C1532      S1537   1.808       .  S
C1533      H1538   1.073       .  S
C1534      C1535   1.428       .  A
C1535      C1536   1.407       .  A
C1535      S1539   1.812       .  S
C1536      H1540   1.083       .  S
S1537      H1542   1.406       .  S
S1539      H1543   1.406       .  S
C1545      C1550   1.407       .  A
C1545      H1555   1.083       .  S
C1546      C1551   1.485       .  S
C1546      C1547   1.407       .  A
C1547      C1548   1.399       .  A
C1547      S1552   1.805       .  S
C1548      C1549   1.415   1_556  A
C1548      H1553   1.075       .  S
C1550      S1554   1.811       .  S
C1551      C1556   1.408       .  A
S1552      H1568   1.405       .  S
S1554      H1565   1.407       .  S
C1556      C1557   1.403       .  A
C1556      S1561   1.807       .  S
C1557      C1558   1.408       .  A
C1557      H1562   1.083       .  S
C1559      C1560   1.403       .  A
C1559      S1563   1.802       .  S
C1560      H1564   1.084       .  S
S1561      H1566   1.407       .  S
S1563      H1567   1.408       .  S
C1569      C1574   1.399       .  A
C1569      H1579   1.084       .  S
C1570      C1575   1.477       .  S
C1570      C1571   1.411       .  A
C1571      C1572   1.399       .  A
C1571      S1576   1.805       .  S
C1572      C1573   1.406       .  A
C1572      H1577   1.084       .  S
C1574      S1578   1.802       .  S
C1575      C1580   1.408       .  A
S1576      H1592   1.404       .  S
S1578      H1589   1.408       .  S
C1580      C1581   1.403       .  A
C1580      S1585   1.806       .  S
C1581      C1582   1.404       .  A
C1581      H1586   1.083       .  S
C1583      C1584   1.399       .  A
C1583      S1587   1.803       .  S
C1584      H1588   1.084       .  S
S1585      H1590   1.407       .  S
S1587      H1591   1.407       .  S
C1593      C1598   1.406       .  A
C1593      H1603   1.083       .  S
C1594      C1599   1.490       .  S
C1594      C1595   1.408       .  A
C1595      C1596   1.400       .  A
C1595      S1600   1.807   1_554  S
C1596      C1597   1.418       .  A
C1596      H1601   1.073   1_554  S
C1598      S1602   1.805       .  S
C1599      C1604   1.411   1_554  A
S1600      H1616   1.406   1_556  S
S1602      H1613   1.406       .  S
C1604      C1605   1.405       .  A
C1604      S1609   1.807       .  S
C1605      C1606   1.409       .  A
C1605      H1610   1.082       .  S
C1607      C1608   1.403       .  A
C1607      S1611   1.802       .  S
C1608      H1612   1.084       .  S
S1609      H1614   1.407       .  S
S1611      H1615   1.408       .  S
C1617      C1622   1.410       .  A
C1617      H1627   1.083       .  S
C1618      C1623   1.490       .  S
C1618      C1619   1.407       .  A
C1619      C1620   1.400       .  A
C1619      S1624   1.806       .  S
C1620      C1621   1.417       .  A
C1620      H1625   1.074       .  S
C1622      S1626   1.810       .  S
C1623      C1628   1.409       .  A
S1624      H1640   1.405       .  S
S1626      H1637   1.406       .  S
C1628      C1629   1.405       .  A
C1628      S1633   1.807       .  S
C1629      C1630   1.408       .  A
C1629      H1634   1.083       .  S
C1631      C1632   1.407       .  A
C1631      S1635   1.801       .  S
C1632      H1636   1.084       .  S
S1633      H1638   1.407       .  S
S1635      H1639   1.407       .  S
C1641      C1646   1.399       .  A
C1641      H1651   1.084       .  S
C1642      C1647   1.476       .  S
C1642      C1643   1.411       .  A
C1643      C1644   1.398       .  A
C1643      S1648   1.805       .  S
C1644      C1645   1.405       .  A
C1644      H1649   1.084       .  S
C1646      S1650   1.803       .  S
C1647      C1652   1.408       .  A
S1648      H1664   1.404       .  S
S1650      H1661   1.407       .  S
C1652      C1653   1.404       .  A
C1652      S1657   1.806       .  S
C1653      C1654   1.405       .  A
C1653      H1658   1.083       .  S
C1655      C1656   1.397       .  A
C1655      S1659   1.803       .  S
C1656      H1660   1.084       .  S
S1657      H1662   1.407       .  S
S1659      H1663   1.407       .  S
C1665      C1670   1.407       .  A
C1665      H1675   1.083       .  S
C1666      C1671   1.490       .  S
C1666      C1667   1.408       .  A
C1667      C1668   1.402       .  A
C1667      S1672   1.806       .  S
C1668      H1673   1.075       .  S
C1669      C1670   1.427       .  A
C1670      S1674   1.811       .  S
C1671      C1676   1.410       .  A
S1672      H1688   1.406       .  S
S1674      H1685   1.406       .  S
C1676      C1677   1.404       .  A
C1676      S1681   1.807       .  S
C1677      H1682   1.082       .  S
C1678      C1679   1.417       .  A
C1679      C1680   1.405       .  A
C1679      S1683   1.801       .  S
C1680      H1684   1.084       .  S
S1681      H1686   1.407       .  S
S1683      H1687   1.407       .  S
C1689      C1694   1.409       .  A
C1689      H1699   1.083       .  S
C1690      C1695   1.494       .  S
C1690      C1691   1.410       .  A
C1691      C1692   1.403       .  A
C1691      S1696   1.806       .  S
C1692      H1697   1.076       .  S
C1693      C1694   1.426   1_554  A
C1694      S1698   1.810       .  S
C1695      C1700   1.412       .  A
S1696      H1712   1.406       .  S
S1698      H1709   1.406       .  S
C1700      C1701   1.406       .  A
C1700      S1705   1.807       .  S
C1701      H1706   1.082       .  S
C1702      C1703   1.417   1_554  A
C1703      C1704   1.404       .  A
C1703      S1707   1.802       .  S
C1704      H1708   1.084       .  S
S1705      H1710   1.407       .  S
S1707      H1711   1.408       .  S
C1713      C1718   1.399       .  A
C1713      H1723   1.084       .  S
C1714      C1719   1.481       .  S
C1714      C1715   1.413       .  A
C1715      C1716   1.401       .  A
C1715      S1720   1.804       .  S
C1716      C1717   1.403       .  A
C1716      H1721   1.084       .  S
C1718      S1722   1.803       .  S
C1719      C1724   1.409       .  A
S1720      H1736   1.405       .  S
S1722      H1733   1.407       .  S
C1724      C1725   1.404       .  A
C1724      S1729   1.806       .  S
C1725      C1726   1.405       .  A
C1725      H1730   1.083       .  S
C1727      C1728   1.401       .  A
C1727      S1731   1.802       .  S
C1728      H1732   1.084       .  S
S1729      H1734   1.407       .  S
S1731      H1735   1.407   1_565  S
C1737      C1742   1.400       .  A
C1737      H1747   1.084       .  S
C1738      C1743   1.476       .  S
C1738      C1739   1.411       .  A
C1739      C1740   1.397       .  A
C1739      S1744   1.805       .  S
C1740      H1745   1.084       .  S
C1741      C1742   1.414       .  A
C1742      S1746   1.803       .  S
C1743      C1748   1.409       .  A
S1744      H1760   1.405       .  S
S1746      H1757   1.407   1_565  S
C1748      C1749   1.404       .  A
C1748      S1753   1.806       .  S
C1749      H1754   1.083       .  S
C1750      C1751   1.416   1_554  A
C1751      C1752   1.398       .  A
C1751      S1755   1.803       .  S
C1752      H1756   1.084       .  S
S1753      H1758   1.407       .  S
S1755      H1759   1.407       .  S
