geometry optimzed in LAMMPS
_audit_creation_date              2020-11-30 
_audit_creation_method            'lammps2cif' 
_symmetry_space_group_name_H-M    'P1' 
_symmetry_Int_Tables_number       1 
_symmetry_cell_setting            triclinic 
loop_ 
_symmetry_equiv_pos_as_xyz 
  x,y,z 
_cell_length_a                    30.173820978032968 
_cell_length_b                    32.83442554146243 
_cell_length_c                    27.590583130010717 
_cell_angle_alpha                 88.25327258203727 
_cell_angle_beta                  92.50700095128144 
_cell_angle_gamma                 116.77830210011436 
loop_ 
_atom_site_label 
_atom_site_type_symbol 
_atom_site_fract_x 
_atom_site_fract_y 
_atom_site_fract_z 
_atom_site_charge 
C1          C  0.49660868  0.27461462  0.49064891     0.00440
C2          C  0.98939338  0.23145098  0.00373530     0.00440
C3          C  0.23598429  0.50597094  0.51120949     0.00440
C4          C  0.27198570  0.50518194  0.48327587     0.00440
C5          C  0.22874465  0.24127546  0.49134575     0.00440
C6          C  0.26596030  0.28429197  0.49895009     0.00440
O7          O  0.02683012  0.13129369  0.32134935    -0.80250
O8          O  0.40617244  0.37519137  0.31069558    -0.81810
O9          O  0.39048934  0.00086933  0.34413283    -0.78820
O10         O  0.02923442  0.99882961  0.40368032    -0.77210
O11         O  0.09913841  0.00354734  0.36878436    -0.79000
O12         O  0.35583851  0.00581773  0.26980080    -0.79930
O13         O  0.42454165  0.42778884  0.37045029    -0.81260
O14         O  0.49097684  0.07342852  0.37699088    -0.81550
Eu15       Eu  0.47193263  0.00298900  0.33655157     2.39200
O16         O  0.50879380  0.46136010  0.30544523    -0.89060
O17         O  0.46548352  0.05286359  0.27580906    -0.92660
C18         C  0.00846209  0.11529571  0.36309176     1.02030
C19         C  0.40256116  0.38711804  0.35384635     1.01850
C20         C  0.35557793  0.00246770  0.31670926     1.01790
C21         C  0.07273396  0.99960225  0.40527210     0.99650
H22         H  0.38682156  0.43949840  0.28129551     0.29400
O23         O  0.42017663  0.45928500  0.27146692    -1.01440
H24         H  0.06671357  0.06808001  0.33974905     0.29430
O25         O  0.05092644  0.05133403  0.31073812    -1.03990
O26         O  0.47071252  0.38156484  0.17097122    -0.81210
O27         O  0.09651648  0.14183297  0.18048678    -0.80750
O28         O  0.35570236  0.43467443  0.17203543    -0.79190
O29         O  0.07059357  0.43052379  0.32068281    -0.82530
O30         O  0.14972425  0.08609370  0.32061163    -0.80380
O31         O  0.42845729  0.08699210  0.18047401    -0.79030
O32         O  0.47968447  0.01500426  0.08871946    -0.80550
O33         O  0.11558784  0.01080221  0.14994588    -0.82480
O34         O  0.41151510  0.01446264  0.12322281    -0.79220
O35         O  0.15085978  0.00868934  0.22476038    -0.81890
O36         O  0.38090775  0.38068431  0.19425105    -0.77630
O37         O  0.00481569  0.14077321  0.20689023    -0.77660
O38         O  0.12652911  0.13973544  0.29079586    -0.77300
O39         O  0.49879399  0.37630563  0.28576769    -0.80800
O40         O  0.01214428  0.44005736  0.11791693    -0.80220
O41         O  0.08617531  0.08716032  0.12553584    -0.78550
Eu42       Eu  0.45817634  0.41634192  0.24258671     2.39770
Eu43       Eu  0.04613777  0.10033035  0.24953236     2.39530
Eu44       Eu  0.41658060  0.00927273  0.20977469     2.38400
Eu45       Eu  0.09062393  0.00893667  0.28357610     2.39880
Eu46       Eu  0.03503768  0.01179338  0.15731162     2.39790
O47         O  0.08544578  0.05776990  0.22143677    -0.92970
O48         O  0.45448483  0.46587689  0.18247988    -0.91860
C49         C  0.49089547  0.39764861  0.13008283     1.02200
C50         C  0.10486216  0.12863886  0.13984976     1.00920
C51         C  0.35214854  0.39373595  0.16981596     1.00310
C52         C  0.03488416  0.38895212  0.31749222     1.02320
C53         C  0.15264848  0.12707611  0.31982090     1.01240
C54         C  0.46434658  0.12843420  0.18099078     1.00090
C55         C  0.43714660  0.01597400  0.08675217     1.00150
C56         C  0.15043986  0.00933046  0.17774127     1.02760
H57         H  0.99916728  0.07426020  0.15811723     0.30130
O58         O  0.99837741  0.05506097  0.18549203    -1.05130
H59         H  0.05517394  0.44406133  0.20793974     0.32180
O60         O  0.04063014  0.46282209  0.21904265    -1.07690
C61         C  0.27609554  0.30692335  0.04790547    -0.05590
C62         C  0.29386349  0.28998789  0.08741160    -0.33020
C63         C  0.31342866  0.31568535  0.12971645     0.36230
C64         C  0.31694553  0.36022788  0.13310837    -0.05940
C65         C  0.29367656  0.37459236  0.09565252    -0.32910
C66         C  0.27308433  0.34805986  0.05365207     0.36140
H67         H  0.29559332  0.25793102  0.08427355     0.16510
O68         O  0.33207077  0.29784387  0.16613049    -0.60410
H69         H  0.29425265  0.40774908  0.09726783     0.16530
O70         O  0.25165284  0.36325963  0.01729213    -0.60510
H71         H  0.22022723  0.36028236  0.03037847     0.43520
H72         H  0.30445383  0.28249705  0.18867944     0.43480
C73         C  0.14025070  0.16197327  0.10715404    -0.05590
C74         C  0.13643504  0.20139813  0.09211797    -0.33020
C75         C  0.16515722  0.22812559  0.05404697     0.36230
C76         C  0.19811248  0.21527069  0.03182670    -0.05940
C77         C  0.20361114  0.17738224  0.04894411    -0.32910
C78         C  0.17543604  0.15116883  0.08665806     0.36140
H79         H  0.10984311  0.21017630  0.10823155     0.16510
O80         O  0.16114280  0.26655990  0.03889637    -0.60410
H81         H  0.23011139  0.16823142  0.03317659     0.16530
O82         O  0.18217662  0.11453469  0.10319857    -0.60510
H83         H  0.19702829  0.12303494  0.13636637     0.43520
H84         H  0.12897197  0.25557716  0.52057114     0.43480
C85         C  0.36867973  0.35327114  0.38680920    -0.05590
C86         C  0.38623476  0.34993207  0.43371266    -0.33020
C87         C  0.35311336  0.32741576  0.47020800     0.36230
C88         C  0.30152426  0.30868967  0.46024709    -0.05940
C89         C  0.28435732  0.31304120  0.41313657    -0.32910
C90         C  0.31751587  0.33337601  0.37604040     0.36140
H91         H  0.42579908  0.36618130  0.44242171     0.16510
O92         O  0.37161131  0.32408458  0.51552516    -0.60410
H93         H  0.24533233  0.30187072  0.40514407     0.16530
O94         O  0.29971232  0.33764833  0.33055032    -0.60510
H95         H  0.29513986  0.30999547  0.31309280     0.43520
H96         H  0.38420693  0.35482657  0.52975353     0.43480
C97         C  0.18010720  0.16067109  0.35950315    -0.05590
C98         C  0.16001694  0.18999795  0.37293362    -0.33020
C99         C  0.17686113  0.21680946  0.41443393     0.36230
C100        C  0.21625883  0.21693770  0.44345523    -0.05940
C101        C  0.23836473  0.18939555  0.42950374    -0.32910
C102        C  0.22039122  0.16128253  0.38799387     0.36140
H103        H  0.12872792  0.19056437  0.35268027     0.16510
O104        O  0.15445702  0.24320204  0.42639943    -0.60410
H105        H  0.26847354  0.18855624  0.45165690     0.16530
O106        O  0.24151207  0.13383532  0.37642803    -0.60510
H107        H  0.26970551  0.15310031  0.35580408     0.43520
H108        H  0.12359032  0.22201332  0.44240434     0.43480
C109        C  0.32038397  0.50971153  0.00377797    -0.05590
C110        C  0.33095481  0.47221731  0.00386231    -0.33020
C111        C  0.37677786  0.47609088  0.02182059     0.36230
C112        C  0.41242393  0.01782018  0.04070898    -0.05940
C113        C  0.40494213  0.05672540  0.03307844    -0.32910
C114        C  0.35934162  0.05283794  0.01430236     0.36140
H115        H  0.30350885  0.43985886  0.99044459     0.16510
O116        O  0.38525825  0.43835088  0.02334002    -0.60410
H117        H  0.43262464  0.08938845  0.04632182     0.16530
O118        O  0.35275470  0.09113781  0.00693346    -0.60510
H119        H  0.37416562  0.10762486  0.97953655     0.43520
H120        H  0.38376506  0.42889826  0.55791013     0.43480
C121        C  0.23803380  0.50667360  0.06543574    -0.05590
C122        C  0.20827183  0.46561628  0.08970719    -0.33020
C123        C  0.18411866  0.46572733  0.13202339     0.36230
C124        C  0.19142500  0.00730954  0.15189499    -0.05940
C125        C  0.22898752  0.04785195  0.13346051    -0.32910
C126        C  0.25120399  0.04802929  0.08953235     0.36140
H127        H  0.19847516  0.43337512  0.07250553     0.16510
O128        O  0.14865315  0.42525133  0.14992725    -0.60410
H129        H  0.23708099  0.07994243  0.15003146     0.16530
O130        O  0.28201496  0.08879270  0.06800910    -0.60510
H131        H  0.26401885  0.10771781  0.06644529     0.43520
H132        H  0.16601784  0.41607483  0.17610161     0.43480
C133        C  0.26762263  0.50174380  0.42937967    -0.05590
C134        C  0.25889021  0.45996856  0.40921597    -0.33020
C135        C  0.28242992  0.45905198  0.36692556     0.36230
C136        C  0.31305296  0.00008808  0.34306312    -0.05940
C137        C  0.31422276  0.04090852  0.35838178    -0.32910
C138        C  0.29123431  0.04189585  0.40114692     0.36140
H139        H  0.24041470  0.42866482  0.43003983     0.16510
O140        O  0.28089050  0.41868772  0.35303097    -0.60410
H141        H  0.33804228  0.07285114  0.34070516     0.16530
O142        O  0.29898273  0.08331810  0.41864163    -0.60510
H143        H  0.26577661  0.07980494  0.42679330     0.43520
H144        H  0.30618636  0.41485062  0.37423252     0.43480
C145        C  0.18839245  0.50228844  0.48953925    -0.05590
C146        C  0.17816270  0.03997930  0.49043792    -0.33020
C147        C  0.13319977  0.03709927  0.47106023     0.36230
C148        C  0.09762266  0.49606491  0.45060359    -0.05940
C149        C  0.10563885  0.45711342  0.45497877    -0.32910
C150        C  0.15095044  0.46016036  0.47341113     0.36140
H151        H  0.20600502  0.07241862  0.50381740     0.16510
O152        O  0.12644497  0.07573106  0.46771209    -0.60410
H153        H  0.07902725  0.42554952  0.43855127     0.16530
O154        O  0.15955386  0.42261918  0.97237372    -0.60510
H155        H  0.14884501  0.40702534  0.00403255     0.43520
H156        H  0.14021861  0.09015230  0.43620573     0.43480
C157        C  0.49340737  0.30510866  0.02700076    -0.05590
C158        C  0.03457499  0.34741169  0.03404754    -0.33020
C159        C  0.03374363  0.37797174  0.06704380     0.36230
C160        C  0.49156239  0.36578798  0.09485058    -0.05940
C161        C  0.45027967  0.32326543  0.08847439    -0.32910
C162        C  0.45037853  0.29335856  0.05369970     0.36140
H163        H  0.06786893  0.35661654  0.01431185     0.16510
O164        O  0.07531465  0.41879111  0.07353504    -0.60410
H165        H  0.41740033  0.31390031  0.10932634     0.16530
O166        O  0.40840078  0.25303057  0.04631412    -0.60510
H167        H  0.39348911  0.25663371  0.01480011     0.43520
H168        H  0.07110675  0.44018748  0.04983566     0.43480
C169        C  0.46381808  0.16282029  0.14386779    -0.05590
C170        C  0.00813699  0.20327927  0.13607719    -0.33020
C171        C  0.01549959  0.22851401  0.09243622     0.36230
C172        C  0.47860169  0.21339349  0.05514413    -0.05940
C173        C  0.43235826  0.17684109  0.06527870    -0.32910
C174        C  0.42448155  0.15196752  0.10920331     0.36140
H175        H  0.03907935  0.21359530  0.16208697     0.16510
O176        O  0.06086121  0.26475865  0.08447662    -0.60410
H177        H  0.40264971  0.16715766  0.03819546     0.16530
O178        O  0.37938049  0.11509864  0.11605086    -0.60510
H179        H  0.36129371  0.12628737  0.13685683     0.43520
H180        H  0.06150070  0.29005043  0.10370970     0.43480
C181        C  0.00767727  0.29502198  0.44012194    -0.05590
C182        C  0.05696233  0.32138270  0.42520808    -0.33020
C183        C  0.06752400  0.35115279  0.38426875     0.36230
C184        C  0.02847342  0.35387809  0.35659580    -0.05940
C185        C  0.47940806  0.32476891  0.36990144    -0.32910
C186        C  0.46896949  0.29676094  0.41135928     0.36140
H187        H  0.08749091  0.32120053  0.44721903     0.16510
O188        O  0.11592376  0.37871972  0.37312445    -0.60410
H189        H  0.44827686  0.32576529  0.34990632     0.16530
O190        O  0.42075585  0.27374303  0.42580808    -0.60510
H191        H  0.40160299  0.25366442  0.39852390     0.43520
H192        H  0.12512914  0.36022943  0.35171431     0.43480
C193        C  0.00546437  0.14643850  0.39760531    -0.05590
C194        C  0.02770511  0.15002923  0.44377201    -0.33020
C195        C  0.02212286  0.17693189  0.47881463     0.36230
C196        C  0.99356785  0.20049813  0.46783320    -0.05940
C197        C  0.46833395  0.19363871  0.42252524    -0.32910
C198        C  0.47529461  0.16800266  0.38700452     0.36140
H199        H  0.04974494  0.13212887  0.45257408     0.16510
O200        O  0.04561129  0.18057016  0.52321667    -0.60410
H201        H  0.44254517  0.20750045  0.41469452     0.16530
O202        O  0.45015108  0.16192684  0.34308244    -0.60510
H203        H  0.47177488  0.18826406  0.32270814     0.43520
H204        H  0.02530082  0.15160193  0.04064876     0.43480
C205        C  0.49660860  0.27461465  0.99064898     0.00440
C206        C  0.98939337  0.23145093  0.50373522     0.00440
C207        C  0.23598429  0.50597115  0.01120928     0.00440
C208        C  0.27198577  0.50518227  0.98327567     0.00440
C209        C  0.22874492  0.24127555  0.99134589     0.00440
C210        C  0.26596048  0.28429212  0.99895022     0.00440
O211        O  0.02683018  0.13129389  0.82134944    -0.80250
O212        O  0.40617244  0.37519132  0.81069553    -0.81810
O213        O  0.39048936  0.00086967  0.84413269    -0.78820
O214        O  0.02923414  0.99882962  0.90368042    -0.77210
O215        O  0.09913821  0.00354743  0.86878455    -0.79000
O216        O  0.35583865  0.00581808  0.76980059    -0.79930
O217        O  0.42454159  0.42778881  0.87045020    -0.81260
O218        O  0.49097680  0.07342870  0.87699093    -0.81550
Eu219      Eu  0.47193259  0.00298919  0.83655158     2.39200
O220        O  0.50879372  0.46136005  0.80544517    -0.89060
O221        O  0.46548359  0.05286382  0.77580908    -0.92660
C222        C  0.00846209  0.11529589  0.86309182     1.02030
C223        C  0.40256115  0.38711801  0.85384629     1.01850
C224        C  0.35557800  0.00246808  0.81670905     1.01790
C225        C  0.07273367  0.99960224  0.90527225     0.99650
H226        H  0.38682147  0.43949830  0.78129537     0.29400
O227        O  0.42017655  0.45928490  0.77146679    -1.01440
H228        H  0.06671357  0.06808012  0.83974920     0.29430
O229        O  0.05092647  0.05133417  0.81073824    -1.03990
O230        O  0.47071261  0.38156483  0.67097115    -0.81210
O231        O  0.09651665  0.14183341  0.68048711    -0.80750
O232        O  0.35570230  0.43467431  0.67203527    -0.79190
O233        O  0.07059347  0.43052374  0.82068282    -0.82530
O234        O  0.14972429  0.08609377  0.82061185    -0.80380
O235        O  0.42845745  0.08699234  0.68047402    -0.79030
O236        O  0.47968498  0.01500467  0.58871944    -0.80550
O237        O  0.11558826  0.01080258  0.64994610    -0.82480
O238        O  0.41151554  0.01446295  0.62322274    -0.79220
O239        O  0.15085997  0.00868950  0.72476067    -0.81890
O240        O  0.38090776  0.38068424  0.69425091    -0.77630
O241        O  0.00481584  0.14077343  0.70689029    -0.77660
O242        O  0.12652918  0.13973554  0.79079611    -0.77300
O243        O  0.49879393  0.37630556  0.78576767    -0.80800
O244        O  0.01214451  0.44005736  0.61791691    -0.80220
O245        O  0.08617600  0.08716083  0.62553626    -0.78550
Eu246      Eu  0.45817632  0.41634186  0.74258663     2.39770
Eu247      Eu  0.04613789  0.10033056  0.74953251     2.39530
Eu248      Eu  0.41658082  0.00927301  0.70977462     2.38400
Eu249      Eu  0.09062396  0.00893679  0.78357627     2.39880
Eu250      Eu  0.03503807  0.01179372  0.65731169     2.39790
O251        O  0.08544597  0.05777013  0.72143698    -0.92970
O252        O  0.45448489  0.46587685  0.68247976    -0.91860
C253        C  0.49089565  0.39764861  0.63008279     1.02200
C254        C  0.10486258  0.12863938  0.63985017     1.00920
C255        C  0.35214851  0.39373584  0.66981581     1.00310
C256        C  0.03488408  0.38895206  0.81749222     1.02320
C257        C  0.15264854  0.12707619  0.81982112     1.01240
C258        C  0.46434673  0.12843444  0.68099083     1.00090
C259        C  0.43714708  0.01597437  0.58675212     1.00150
C260        C  0.15044021  0.00933076  0.67774156     1.02760
H261        H  0.99916760  0.07426052  0.65811728     0.30130
O262        O  0.99837769  0.05506125  0.68549206    -1.05130
H263        H  0.05517398  0.44406132  0.70793973     0.32180
O264        O  0.04063016  0.46282206  0.71904262    -1.07690
C265        C  0.27609535  0.30692316  0.54790539    -0.05590
C266        C  0.29386358  0.28998780  0.58741139    -0.33020
C267        C  0.31342883  0.31568528  0.62971622     0.36230
C268        C  0.31694549  0.36022772  0.63310825    -0.05940
C269        C  0.29367624  0.37459207  0.59565255    -0.32910
C270        C  0.27308392  0.34805955  0.55365212     0.36140
H271        H  0.29559361  0.25793104  0.58427323     0.16510
O272        O  0.33207123  0.29784390  0.66613010    -0.60410
H273        H  0.29425215  0.40774872  0.59726796     0.16530
O274        O  0.25165213  0.36325919  0.51729234    -0.60510
H275        H  0.22022649  0.36028170  0.53037883     0.43520
H276        H  0.30445438  0.28249688  0.68867911     0.43480
C277        C  0.14025109  0.16197392  0.60715456    -0.05590
C278        C  0.13643448  0.20139810  0.59211750    -0.33020
C279        C  0.16515646  0.22812532  0.55404627     0.36230
C280        C  0.19811229  0.21527074  0.53182664    -0.05940
C281        C  0.20361196  0.17738308  0.54894507    -0.32910
C282        C  0.17543721  0.15117005  0.58665942     0.36140
H283        H  0.10984201  0.21017589  0.60823053     0.16510
O284        O  0.16114140  0.26655915  0.53889487    -0.60410
H285        H  0.23011276  0.16823265  0.53317809     0.16530
O286        O  0.18217890  0.11453685  0.60320122    -0.60510
H287        H  0.19703126  0.12303844  0.63636860     0.43520
H288        H  0.12897375  0.25557851  0.02057203     0.43480
C289        C  0.36867974  0.35327113  0.88680918    -0.05590
C290        C  0.38623484  0.34993204  0.93371260    -0.33020
C291        C  0.35311348  0.32741582  0.97020801     0.36230
C292        C  0.30152438  0.30868983  0.96024719    -0.05940
C293        C  0.28435737  0.31304144  0.91313671    -0.32910
C294        C  0.31751587  0.33337615  0.87604048     0.36140
H295        H  0.42579917  0.36618119  0.94242159     0.16510
O296        O  0.37161146  0.32408463  0.01552515    -0.60410
H297        H  0.24533239  0.30187105  0.90514430     0.16530
O298        O  0.29971227  0.33764854  0.83055045    -0.60510
H299        H  0.29513969  0.30999565  0.81309289     0.43520
H300        H  0.38420703  0.35482661  0.02975354     0.43480
C301        C  0.18010732  0.16067117  0.85950334    -0.05590
C302        C  0.16001717  0.18999812  0.87293378    -0.33020
C303        C  0.17686145  0.21680968  0.91443405     0.36230
C304        C  0.21625915  0.21693787  0.94345531    -0.05940
C305        C  0.23836497  0.18939566  0.92950383    -0.32910
C306        C  0.22039132  0.16128255  0.88799403     0.36140
H307        H  0.12872814  0.19056458  0.85268046     0.16510
O308        O  0.15445738  0.24320227  0.92639957    -0.60410
H309        H  0.26847379  0.18855633  0.95165695     0.16530
O310        O  0.24151202  0.13383521  0.87642824    -0.60510
H311        H  0.26970548  0.15310011  0.85580427     0.43520
H312        H  0.12359131  0.22201378  0.94240558     0.43480
C313        C  0.32038392  0.50971124  0.50377812    -0.05590
C314        C  0.33095471  0.47221698  0.50386258    -0.33020
C315        C  0.37677783  0.47609060  0.52182069     0.36230
C316        C  0.41242445  0.01782062  0.54070895    -0.05940
C317        C  0.40494234  0.05672570  0.53307868    -0.32910
C318        C  0.35934171  0.05283805  0.51430276     0.36140
H319        H  0.30350865  0.43985846  0.49044512     0.16510
O320        O  0.38525817  0.43835057  0.52334027    -0.60410
H321        H  0.43262467  0.08938875  0.54632222     0.16530
O322        O  0.35275451  0.09113781  0.50693413    -0.60510
H323        H  0.37416526  0.10762499  0.47953716     0.43520
H324        H  0.38376520  0.42889850  0.05790985     0.43480
C325        C  0.23803390  0.50667352  0.56543595    -0.05590
C326        C  0.20827203  0.46561625  0.58970752    -0.33020
C327        C  0.18411890  0.46572737  0.63202372     0.36230
C328        C  0.19142548  0.00730999  0.65189535    -0.05940
C329        C  0.22898771  0.04785245  0.63346063    -0.32910
C330        C  0.25120409  0.04802979  0.58953242     0.36140
H331        H  0.19847539  0.43337505  0.57250596     0.16510
O332        O  0.14865349  0.42525139  0.64992773    -0.60410
H333        H  0.23708099  0.07994292  0.65003147     0.16530
O334        O  0.28201475  0.08879321  0.56800898    -0.60510
H335        H  0.26401850  0.10771819  0.56644531     0.43520
H336        H  0.16601823  0.41607508  0.67610221     0.43480
C337        C  0.26762277  0.50174420  0.92937946    -0.05590
C338        C  0.25889015  0.45996893  0.90921570    -0.33020
C339        C  0.28242976  0.45905226  0.86692526     0.36230
C340        C  0.31305298  0.00008844  0.84306284    -0.05940
C341        C  0.31422274  0.04090884  0.85838156    -0.32910
C342        C  0.29123422  0.04189609  0.90114670     0.36140
H343        H  0.24041452  0.42866519  0.93003953     0.16510
O344        O  0.28089009  0.41868793  0.85303058    -0.60410
H345        H  0.33804228  0.07285150  0.84070501     0.16530
O346        O  0.29898259  0.08331831  0.91864146    -0.60510
H347        H  0.26577654  0.07980499  0.92679366     0.43520
H348        H  0.30618584  0.41485065  0.87423211     0.43480
C349        C  0.18839244  0.50228862  0.98953903    -0.05590
C350        C  0.17816212  0.03997893  0.99043828    -0.33020
C351        C  0.13319913  0.03709887  0.97106074     0.36230
C352        C  0.09762253  0.49606496  0.95060357    -0.05940
C353        C  0.10563879  0.45711351  0.95497871    -0.32910
C354        C  0.15095044  0.46016051  0.97341096     0.36140
H355        H  0.20600429  0.07241816  0.00381812     0.16510
O356        O  0.12644408  0.07573055  0.96771309    -0.60410
H357        H  0.07902719  0.42554958  0.93855124     0.16530
O358        O  0.15955380  0.42261899  0.47237393    -0.60510
H359        H  0.14884527  0.40702537  0.50403292     0.43520
H360        H  0.14021853  0.09015255  0.93620724     0.43480
C361        C  0.49340749  0.30510865  0.52700072    -0.05590
C362        C  0.03457520  0.34741159  0.53404763    -0.33020
C363        C  0.03374389  0.37797164  0.56704392     0.36230
C364        C  0.49156258  0.36578796  0.59485056    -0.05940
C365        C  0.45027977  0.32326550  0.58847425    -0.32910
C366        C  0.45037860  0.29335862  0.55369956     0.36140
H367        H  0.06786918  0.35661636  0.51431202     0.16510
O368        O  0.07531500  0.41879091  0.57353532    -0.60410
H369        H  0.41740039  0.31390044  0.60932611     0.16530
O370        O  0.40840081  0.25303069  0.54631390    -0.60510
H371        H  0.39348918  0.25663390  0.51479991     0.43520
H372        H  0.07110728  0.44018738  0.54983595     0.43480
C373        C  0.46381821  0.16282053  0.64386786    -0.05590
C374        C  0.00813717  0.20327944  0.63607714    -0.33020
C375        C  0.01549971  0.22851411  0.59243612     0.36230
C376        C  0.47860173  0.21339356  0.55514410    -0.05940
C377        C  0.43235827  0.17684128  0.56527882    -0.32910
C378        C  0.42448160  0.15196780  0.60920349     0.36140
H379        H  0.03907957  0.21359546  0.66208686     0.16510
O380        O  0.06086136  0.26475867  0.58447640    -0.60410
H381        H  0.40264966  0.16715787  0.53819565     0.16530
O382        O  0.37938048  0.11509905  0.61605121    -0.60510
H383        H  0.36129372  0.12628800  0.63685692     0.43520
H384        H  0.06150104  0.29005046  0.60370959     0.43480
C385        C  0.00767720  0.29502195  0.94012198    -0.05590
C386        C  0.05696225  0.32138271  0.92520814    -0.33020
C387        C  0.06752392  0.35115278  0.88426880     0.36230
C388        C  0.02847333  0.35387803  0.85659580    -0.05940
C389        C  0.47940798  0.32476878  0.86990141    -0.32910
C390        C  0.46896940  0.29676082  0.91135925     0.36140
H391        H  0.08749084  0.32120058  0.94721912     0.16510
O392        O  0.11592367  0.37871974  0.87312451    -0.60410
H393        H  0.44827677  0.32576512  0.84990625     0.16530
O394        O  0.42075577  0.27374288  0.92580805    -0.60510
H395        H  0.40160291  0.25366432  0.89852384     0.43520
H396        H  0.12512910  0.36022946  0.85171440     0.43480
C397        C  0.00546437  0.14643869  0.89760535    -0.05590
C398        C  0.02770581  0.15002999  0.94377178    -0.33020
C399        C  0.02212360  0.17693265  0.97881441     0.36230
C400        C  0.99356794  0.20049829  0.96783326    -0.05940
C401        C  0.46833345  0.19363839  0.92252559    -0.32910
C402        C  0.47529400  0.16800228  0.88700485     0.36140
H403        H  0.04974614  0.13213006  0.95257362     0.16510
O404        O  0.04561266  0.18057151  0.02321620    -0.60410
H405        H  0.44254432  0.20749980  0.91469514     0.16530
O406        O  0.45014981  0.16192586  0.84308308    -0.60510
H407        H  0.47177315  0.18826297  0.82270838     0.43520
H408        H  0.02529902  0.15160048  0.54064887     0.43480
C409        C  0.49660772  0.77461424  0.49064924     0.00440
C410        C  0.98939311  0.73145064  0.00373549     0.00440
C411        C  0.23598241  0.00597105  0.51120907     0.00440
C412        C  0.27198399  0.00518236  0.48327545     0.00440
C413        C  0.22874432  0.74127588  0.49134580     0.00440
C414        C  0.26595935  0.78429265  0.49895006     0.00440
O415        O  0.02683125  0.63129366  0.32134999    -0.80250
O416        O  0.40617051  0.87519132  0.31069514    -0.81810
O417        O  0.39049102  0.50086901  0.34413330    -0.78820
O418        O  0.02923635  0.49882959  0.40368076    -0.77210
O419        O  0.09914043  0.50354756  0.36878475    -0.79000
O420        O  0.35584014  0.50581735  0.26980125    -0.79930
O421        O  0.42453988  0.92778892  0.37044975    -0.81260
O422        O  0.49097822  0.57342846  0.37699152    -0.81550
Eu423      Eu  0.47193444  0.50298899  0.33655212     2.39200
O424        O  0.50879184  0.96135993  0.30544479    -0.89060
O425        O  0.46548503  0.55286347  0.27580962    -0.92660
C426        C  0.00846321  0.61529565  0.36309239     1.02030
C427        C  0.40255937  0.88711810  0.35384588     1.01850
C428        C  0.35557955  0.50246727  0.31670972     1.01790
C429        C  0.07273593  0.49960231  0.40527250     0.99650
H430        H  0.38681966  0.93949847  0.28129508     0.29400
O431        O  0.42017475  0.95928500  0.27146646    -1.01440
H432        H  0.06671531  0.56808029  0.33974963     0.29430
O433        O  0.05092821  0.55133428  0.31073870    -1.03990
O434        O  0.47071048  0.88156441  0.17097095    -0.81210
O435        O  0.09651761  0.64183335  0.18048742    -0.80750
O436        O  0.35570038  0.93467456  0.17203522    -0.79190
O437        O  0.07059151  0.93052340  0.32068261    -0.82530
O438        O  0.14972592  0.58609414  0.32061203    -0.80380
O439        O  0.42845867  0.58699192  0.18047443    -0.79030
O440        O  0.47968664  0.51500469  0.08871993    -0.80550
O441        O  0.11559000  0.51080290  0.14994633    -0.82480
O442        O  0.41151709  0.51446275  0.12322322    -0.79220
O443        O  0.15086189  0.50868995  0.22476083    -0.81890
O444        O  0.38090561  0.88068437  0.19425100    -0.77630
O445        O  0.00481703  0.64077322  0.20689049    -0.77660
O446        O  0.12653091  0.63973577  0.29079563    -0.77300
O447        O  0.49879134  0.87630535  0.28576830    -0.80800
O448        O  0.01214202  0.94005684  0.11791650    -0.80220
O449        O  0.08617714  0.58716080  0.12553664    -0.78550
Eu450      Eu  0.45817434  0.91634176  0.24258632     2.39770
Eu451      Eu  0.04613919  0.60033051  0.24953297     2.39530
Eu452      Eu  0.41658232  0.50927263  0.20977511     2.38400
Eu453      Eu  0.09062587  0.50893707  0.28357652     2.39880
Eu454      Eu  0.03503970  0.51179376  0.15731217     2.39790
O455        O  0.08544753  0.55777032  0.22143736    -0.92970
O456        O  0.45448283  0.96587674  0.18247948    -0.91860
C457        C  0.49089333  0.89764810  0.13008249     1.02200
C458        C  0.10486354  0.62863932  0.13985049     1.00920
C459        C  0.35214645  0.89373603  0.16981589     1.00310
C460        C  0.03488185  0.88895180  0.31749245     1.02320
C461        C  0.15265011  0.62707653  0.31982098     1.01240
C462        C  0.46434786  0.62843408  0.18099110     1.00090
C463        C  0.43714871  0.51597431  0.08675261     1.00150
C464        C  0.15044205  0.50933119  0.17774172     1.02760
H465        H  0.99916893  0.57426030  0.15811780     0.30130
O466        O  0.99837911  0.55506108  0.18549258    -1.05130
H467        H  0.05517183  0.94406089  0.20793931     0.32180
O468        O  0.04062813  0.96282173  0.21904220    -1.07690
C469        C  0.27609419  0.80692369  0.04790528    -0.05590
C470        C  0.29386231  0.78998830  0.08741132    -0.33020
C471        C  0.31342704  0.81568558  0.12971631     0.36230
C472        C  0.31694347  0.86022793  0.13310837    -0.05940
C473        C  0.29367430  0.87459228  0.09565262    -0.32910
C474        C  0.27308236  0.84805988  0.05365206     0.36140
H475        H  0.29559257  0.75793165  0.08427313     0.16510
O476        O  0.33206922  0.79784412  0.16613032    -0.60410
H477        H  0.29425002  0.90774885  0.09726806     0.16530
O478        O  0.25165054  0.86325945  0.01729223    -0.60510
H479        H  0.22022473  0.86028166  0.03037858     0.43520
H480        H  0.30445218  0.78249700  0.18867912     0.43480
C481        C  0.14025169  0.66197387  0.10715470    -0.05590
C482        C  0.13643479  0.70139798  0.09211794    -0.33020
C483        C  0.16515634  0.72812524  0.05404654     0.36230
C484        C  0.19811208  0.71527082  0.03182650    -0.05940
C485        C  0.20361196  0.67738316  0.04894455    -0.32910
C486        C  0.17543759  0.65117004  0.08665902     0.36140
H487        H  0.10984241  0.71017567  0.10823131     0.16510
O488        O  0.16114097  0.76655898  0.03889542    -0.60410
H489        H  0.23011269  0.66823283  0.03317723     0.16530
O490        O  0.18217942  0.61453678  0.10320036    -0.60510
H491        H  0.19703205  0.62303824  0.13636767     0.43520
H492        H  0.12897166  0.75557686  0.52057131     0.43480
C493        C  0.36867807  0.85327132  0.38680881    -0.05590
C494        C  0.38623337  0.84993212  0.43371211    -0.33020
C495        C  0.35311217  0.82741607  0.47020765     0.36230
C496        C  0.30152308  0.80869043  0.46024705    -0.05940
C497        C  0.28435585  0.81304211  0.41313672    -0.32910
C498        C  0.31751416  0.83337662  0.37604034     0.36140
H499        H  0.42579775  0.86618106  0.44242088     0.16510
O500        O  0.37161027  0.82408463  0.51552466    -0.60410
H501        H  0.24533082  0.80187178  0.40514454     0.16530
O502        O  0.29971042  0.83764904  0.33055039    -0.60510
H503        H  0.29513750  0.80999605  0.31309286     0.43520
H504        H  0.38420595  0.85482655  0.52975323     0.43480
C505        C  0.18010837  0.66067156  0.35950326    -0.05590
C506        C  0.16001745  0.68999793  0.37293360    -0.33020
C507        C  0.17686116  0.71680944  0.41443390     0.36230
C508        C  0.21625900  0.71693816  0.44345531    -0.05940
C509        C  0.23836562  0.68939657  0.42950393    -0.32910
C510        C  0.22039258  0.66128351  0.38799407     0.36140
H511        H  0.12872826  0.69056393  0.35268017     0.16510
O512        O  0.15445638  0.74320146  0.42639932    -0.60410
H513        H  0.26847461  0.68855771  0.45165717     0.16530
O514        O  0.24151407  0.63383680  0.37642833    -0.60510
H515        H  0.26970751  0.65310209  0.35580453     0.43520
H516        H  0.12359027  0.72201258  0.44240500     0.43480
C517        C  0.32038190  0.00971154  0.00377754    -0.05590
C518        C  0.33095242  0.97221713  0.00386209    -0.33020
C519        C  0.37677539  0.97609049  0.02182039     0.36230
C520        C  0.41242614  0.51782057  0.04070941    -0.05940
C521        C  0.40494405  0.55672565  0.03307904    -0.32910
C522        C  0.35934349  0.55283799  0.01430292     0.36140
H523        H  0.30350627  0.93985870  0.99044449     0.16510
O524        O  0.38525548  0.93835033  0.02333994    -0.60410
H525        H  0.43262634  0.58938870  0.04632261     0.16530
O526        O  0.35275632  0.59113773  0.00693401    -0.60510
H527        H  0.37416716  0.60762483  0.97953707     0.43520
H528        H  0.38376330  0.92889845  0.55790932     0.43480
C529        C  0.23803145  0.00667286  0.06543526    -0.05590
C530        C  0.20826905  0.96561545  0.08970633    -0.33020
C531        C  0.18411590  0.96572642  0.13202255     0.36230
C532        C  0.19142731  0.50731047  0.15189542    -0.05940
C533        C  0.22898943  0.54785292  0.13346056    -0.32910
C534        C  0.25120592  0.54803015  0.08953244     0.36140
H535        H  0.19847205  0.93337437  0.07250436     0.16510
O536        O  0.14864999  0.92525045  0.14992605    -0.60410
H537        H  0.23708257  0.57994344  0.15003121     0.16530
O538        O  0.28201653  0.58879352  0.06800885    -0.60510
H539        H  0.26402038  0.60771859  0.06644533     0.43520
H540        H  0.16601442  0.91607342  0.17610018     0.43480
C541        C  0.26762106  0.00174445  0.42937923    -0.05590
C542        C  0.25888837  0.95996921  0.40921533    -0.33020
C543        C  0.28242804  0.95905261  0.36692490     0.36230
C544        C  0.31305451  0.50008745  0.34306357    -0.05940
C545        C  0.31422398  0.54090780  0.35838204    -0.32910
C546        C  0.29123553  0.54189511  0.40114719     0.36140
H547        H  0.24041267  0.92866542  0.43003907     0.16510
O548        O  0.28088827  0.91868827  0.35303010    -0.60410
H549        H  0.33804325  0.57285042  0.34070527     0.16530
O550        O  0.29898355  0.58331730  0.41864172    -0.60510
H551        H  0.26577712  0.57980421  0.42679201     0.43520
H552        H  0.30618398  0.91485090  0.37423161     0.43480
C553        C  0.18839056  0.00228854  0.48953880    -0.05590
C554        C  0.17816468  0.53997926  0.49043827    -0.33020
C555        C  0.13320179  0.53709928  0.47106058     0.36230
C556        C  0.09762068  0.99606489  0.45060322    -0.05940
C557        C  0.10563695  0.95711344  0.45497837    -0.32910
C558        C  0.15094859  0.96016045  0.47341064     0.36140
H559        H  0.20600705  0.57241859  0.50381766     0.16510
O560        O  0.12644709  0.57573112  0.46771234    -0.60410
H561        H  0.07902538  0.92554953  0.43855085     0.16530
O562        O  0.15955212  0.92261917  0.97237222    -0.60510
H563        H  0.14884306  0.90702479  0.00403076     0.43520
H564        H  0.14022098  0.59015240  0.43620607     0.43480
C565        C  0.49340608  0.80510801  0.02700092    -0.05590
C566        C  0.03457334  0.84741133  0.03404739    -0.33020
C567        C  0.03374164  0.87797143  0.06704337     0.36230
C568        C  0.49156045  0.86578743  0.09485031    -0.05940
C569        C  0.45027805  0.82326460  0.08847443    -0.32910
C570        C  0.45037722  0.79335767  0.05369992     0.36140
H571        H  0.06786726  0.85661642  0.01431156     0.16510
O572        O  0.07531230  0.91879116  0.07353411    -0.60410
H573        H  0.41739872  0.81389928  0.10932643     0.16530
O574        O  0.40839973  0.75302947  0.04631446    -0.60510
H575        H  0.39348716  0.75663291  0.01480112     0.43520
H576        H  0.07110383  0.94018712  0.04983458     0.43480
C577        C  0.46381905  0.66282010  0.14386812    -0.05590
C578        C  0.00813781  0.70327916  0.13607726    -0.33020
C579        C  0.01549995  0.72851393  0.09243632     0.36230
C580        C  0.47860178  0.71339330  0.05514447    -0.05940
C581        C  0.43235850  0.67684084  0.06527937    -0.32910
C582        C  0.42448224  0.65196726  0.10920396     0.36140
H583        H  0.03908036  0.71359528  0.16208682     0.16510
O584        O  0.06086141  0.76475869  0.08447647    -0.60410
H585        H  0.40264971  0.66715738  0.03819641     0.16530
O586        O  0.37938129  0.61509831  0.11605178    -0.60510
H587        H  0.36129458  0.62628701  0.13685787     0.43520
H588        H  0.06150068  0.79005055  0.10370923     0.43480
C589        C  0.00767597  0.79502169  0.44012224    -0.05590
C590        C  0.05696089  0.82138258  0.42520810    -0.33020
C591        C  0.06752220  0.85115264  0.38426875     0.36230
C592        C  0.02847139  0.85387783  0.35659609    -0.05940
C593        C  0.47940616  0.82476855  0.36990205    -0.32910
C594        C  0.46896795  0.79676054  0.41135986     0.36140
H595        H  0.08748966  0.82120053  0.44721883     0.16510
O596        O  0.11592185  0.87871965  0.37312416    -0.60410
H597        H  0.44827478  0.82576484  0.34990719     0.16530
O598        O  0.42075442  0.77374237  0.42580888    -0.60510
H599        H  0.40160171  0.75366324  0.39852499     0.43520
H600        H  0.12512710  0.86022944  0.35171378     0.43480
C601        C  0.00546513  0.64643839  0.39760588    -0.05590
C602        C  0.02770538  0.65002899  0.44377281    -0.33020
C603        C  0.02212295  0.67693171  0.47881526     0.36230
C604        C  0.99356811  0.70049809  0.46783351    -0.05940
C605        C  0.46833473  0.69363883  0.42252526    -0.32910
C606        C  0.47529566  0.66800277  0.38700470     0.36140
H607        H  0.04974506  0.63212854  0.45257517     0.16510
O608        O  0.04561111  0.68056995  0.52321745    -0.60410
H609        H  0.44254608  0.70750066  0.41469416     0.16530
O610        O  0.45015262  0.66192715  0.34308236    -0.60510
H611        H  0.47177671  0.68826442  0.32270827     0.43520
H612        H  0.02529917  0.65160023  0.04064932     0.43480
C613        C  0.49660759  0.77461412  0.99064911     0.00440
C614        C  0.98939314  0.73145072  0.50373554     0.00440
C615        C  0.23598210  0.00597085  0.01120880     0.00440
C616        C  0.27198380  0.00518244  0.98327516     0.00440
C617        C  0.22874428  0.74127581  0.99134570     0.00440
C618        C  0.26595933  0.78429256  0.99895002     0.00440
O619        O  0.02683107  0.63129359  0.82134988    -0.80250
O620        O  0.40617050  0.87519153  0.81069511    -0.81810
O621        O  0.39049094  0.50086906  0.84413310    -0.78820
O622        O  0.02923620  0.49882959  0.90368070    -0.77210
O623        O  0.09914031  0.50354758  0.86878474    -0.79000
O624        O  0.35584010  0.50581736  0.76980102    -0.79930
O625        O  0.42453973  0.92778911  0.87044972    -0.81260
O626        O  0.49097804  0.57342837  0.87699140    -0.81550
Eu627      Eu  0.47193432  0.50298893  0.83655200     2.39200
O628        O  0.50879182  0.96136010  0.80544487    -0.89060
O629        O  0.46548491  0.55286337  0.77580948    -0.92660
C630        C  0.00846301  0.61529556  0.86309228     1.02030
C631        C  0.40255928  0.88711830  0.85384585     1.01850
C632        C  0.35557951  0.50246735  0.81670949     1.01790
C633        C  0.07273579  0.49960233  0.90527247     0.99650
H634        H  0.38681967  0.93949871  0.78129497     0.29400
O635        O  0.42017478  0.95928523  0.77146640    -1.01440
H636        H  0.06671519  0.56808026  0.83974958     0.29430
O637        O  0.05092810  0.55133423  0.81073865    -1.03990
O638        O  0.47071064  0.88156466  0.67097101    -0.81210
O639        O  0.09651756  0.64183338  0.68048746    -0.80750
O640        O  0.35570057  0.93467492  0.67203508    -0.79190
O641        O  0.07059148  0.93052344  0.82068268    -0.82530
O642        O  0.14972584  0.58609411  0.82061197    -0.80380
O643        O  0.42845856  0.58699177  0.68047426    -0.79030
O644        O  0.47968679  0.51500464  0.58871981    -0.80550
O645        O  0.11559016  0.51080299  0.64994639    -0.82480
O646        O  0.41151718  0.51446263  0.62322305    -0.79220
O647        O  0.15086192  0.50868996  0.72476093    -0.81890
O648        O  0.38090577  0.88068471  0.69425086    -0.77630
O649        O  0.00481687  0.64077309  0.70689039    -0.77660
O650        O  0.12653077  0.63973571  0.79079559    -0.77300
O651        O  0.49879126  0.87630548  0.78576833    -0.80800
O652        O  0.01214248  0.94005710  0.61791664    -0.80220
O653        O  0.08617730  0.58716086  0.62553670    -0.78550
Eu654      Eu  0.45817442  0.91634201  0.74258632     2.39770
Eu655      Eu  0.04613908  0.60033044  0.74953290     2.39530
Eu656      Eu  0.41658228  0.50927252  0.70977494     2.38400
Eu657      Eu  0.09062580  0.50893704  0.78357651     2.39880
Eu658      Eu  0.03503980  0.51179376  0.65731211     2.39790
O659        O  0.08544750  0.55777030  0.72143735    -0.92970
O660        O  0.45448315  0.96587708  0.68247947    -0.91860
C661        C  0.49089364  0.89764834  0.63008261     1.02200
C662        C  0.10486360  0.62863939  0.63985056     1.00920
C663        C  0.35214663  0.89373639  0.66981574     1.00310
C664        C  0.03488178  0.88895186  0.81749248     1.02320
C665        C  0.15265001  0.62707650  0.81982092     1.01240
C666        C  0.46434770  0.62843394  0.68099097     1.00090
C667        C  0.43714884  0.51597420  0.58675246     1.00150
C668        C  0.15044217  0.50933126  0.67774183     1.02760
H669        H  0.99916893  0.57426025  0.65811768     0.30130
O670        O  0.99837909  0.55506101  0.68549246    -1.05130
H671        H  0.05517198  0.94406111  0.70793943     0.32180
O672        O  0.04062827  0.96282195  0.71904229    -1.07690
C673        C  0.27609423  0.80692388  0.54790526    -0.05590
C674        C  0.29386223  0.78998850  0.58741139    -0.33020
C675        C  0.31342702  0.81568586  0.62971632     0.36230
C676        C  0.31694364  0.86022829  0.63310822    -0.05940
C677        C  0.29367464  0.87459269  0.59565234    -0.32910
C678        C  0.27308262  0.84806020  0.55365186     0.36140
H679        H  0.29559236  0.75793178  0.58427333     0.16510
O680        O  0.33206906  0.79784440  0.66613044    -0.60410
H681        H  0.29425053  0.90774934  0.59726766     0.16530
O682        O  0.25165094  0.86325980  0.51729193    -0.60510
H683        H  0.22022500  0.86028186  0.53037810     0.43520
H684        H  0.30445201  0.78249745  0.68867926     0.43480
C685        C  0.14025179  0.66197399  0.60715484    -0.05590
C686        C  0.13643477  0.70139802  0.59211798    -0.33020
C687        C  0.16515634  0.72812529  0.55404659     0.36230
C688        C  0.19811217  0.71527093  0.53182664    -0.05940
C689        C  0.20361219  0.67738338  0.54894483    -0.32910
C690        C  0.17543785  0.65117028  0.58665932     0.36140
H691        H  0.10984229  0.71017564  0.60823126     0.16510
O692        O  0.16114091  0.76655899  0.53889540    -0.60410
H693        H  0.23011302  0.66823313  0.53317759     0.16530
O694        O  0.18217985  0.61453717  0.60320085    -0.60510
H695        H  0.19703256  0.62303881  0.63636810     0.43520
H696        H  0.12897185  0.75557690  0.02057111     0.43480
C697        C  0.36867798  0.85327149  0.88680877    -0.05590
C698        C  0.38623332  0.84993220  0.93371203    -0.33020
C699        C  0.35311215  0.82741607  0.97020757     0.36230
C700        C  0.30152304  0.80869044  0.96024702    -0.05940
C701        C  0.28435578  0.81304221  0.91313673    -0.32910
C702        C  0.31751407  0.83337680  0.87604035     0.36140
H703        H  0.42579770  0.86618114  0.94242078     0.16510
O704        O  0.37161028  0.82408454  0.01552455    -0.60410
H705        H  0.24533076  0.80187190  0.90514459     0.16530
O706        O  0.29971029  0.83764929  0.83055044    -0.60510
H707        H  0.29513739  0.80999634  0.81309283     0.43520
H708        H  0.38420597  0.85482643  0.02975320     0.43480
C709        C  0.18010833  0.66067155  0.85950315    -0.05590
C710        C  0.16001750  0.68999801  0.87293344    -0.33020
C711        C  0.17686122  0.71680951  0.91443374     0.36230
C712        C  0.21625900  0.71693815  0.94345518    -0.05940
C713        C  0.23836555  0.68939649  0.92950384    -0.32910
C714        C  0.22039247  0.66128343  0.88799399     0.36140
H715        H  0.12872835  0.69056407  0.85267997     0.16510
O716        O  0.15445648  0.74320157  0.92639915    -0.60410
H717        H  0.26847449  0.68855757  0.95165710     0.16530
O718        O  0.24151384  0.63383659  0.87642832    -0.60510
H719        H  0.26970732  0.65310181  0.85580453     0.43520
H720        H  0.12359028  0.72201269  0.94240471     0.43480
C721        C  0.32038218  0.00971161  0.50377775    -0.05590
C722        C  0.33095304  0.97221740  0.50386195    -0.33020
C723        C  0.37677611  0.97609095  0.52182015     0.36230
C724        C  0.41242622  0.51782035  0.54070926    -0.05940
C725        C  0.40494414  0.55672543  0.53307879    -0.32910
C726        C  0.35934351  0.55283773  0.51430281     0.36140
H727        H  0.30350706  0.93985896  0.49044419     0.16510
O728        O  0.38525648  0.93835093  0.52333951    -0.60410
H729        H  0.43262648  0.58938853  0.54632221     0.16530
O730        O  0.35275634  0.59113746  0.50693384    -0.60510
H731        H  0.37416709  0.60762448  0.47953681     0.43520
H732        H  0.38376280  0.92889823  0.05790985     0.43480
C733        C  0.23803185  0.00667331  0.56543554    -0.05590
C734        C  0.20826984  0.96561593  0.58970686    -0.33020
C735        C  0.18411672  0.96572688  0.63202313     0.36230
C736        C  0.19142747  0.50731054  0.65189560    -0.05940
C737        C  0.22898953  0.54785298  0.63346062    -0.32910
C738        C  0.25120600  0.54803013  0.58953252     0.36140
H739        H  0.19847313  0.93337481  0.57250510     0.16510
O740        O  0.14865118  0.92525086  0.64992691    -0.60410
H741        H  0.23708262  0.57994352  0.65003118     0.16530
O742        O  0.28201658  0.58879345  0.56800882    -0.60510
H743        H  0.26402049  0.60771858  0.56644540     0.43520
H744        H  0.16601585  0.91607427  0.67610120     0.43480
C745        C  0.26762097  0.00174464  0.92937893    -0.05590
C746        C  0.25888836  0.95996945  0.90921497    -0.33020
C747        C  0.28242806  0.95905292  0.86692454     0.36230
C748        C  0.31305453  0.50008770  0.84306332    -0.05940
C749        C  0.31422425  0.54090814  0.85838187    -0.32910
C750        C  0.29123586  0.54189553  0.90114703     0.36140
H751        H  0.24041268  0.92866562  0.93003866     0.16510
O752        O  0.28088833  0.91868862  0.85302968    -0.60410
H753        H  0.33804366  0.57285073  0.84070513     0.16530
O754        O  0.29898413  0.58331777  0.91864161    -0.60510
H755        H  0.26577782  0.57980476  0.92679226     0.43520
H756        H  0.30618404  0.91485124  0.87423119     0.43480
C757        C  0.18839024  0.00228834  0.98953859    -0.05590
C758        C  0.17816460  0.53997940  0.99043811    -0.33020
C759        C  0.13320165  0.53709935  0.97106052     0.36230
C760        C  0.09762023  0.99606462  0.95060335    -0.05940
C761        C  0.10563670  0.95711325  0.95497804    -0.32910
C762        C  0.15094842  0.96016031  0.97341009     0.36140
H763        H  0.20600697  0.57241873  0.00381749     0.16510
O764        O  0.12644687  0.57573115  0.96771234    -0.60410
H765        H  0.07902524  0.92554944  0.93855027     0.16530
O766        O  0.15955206  0.92261915  0.47237328    -0.60510
H767        H  0.14884330  0.90702528  0.50403210     0.43520
H768        H  0.14022071  0.59015247  0.93620607     0.43480
C769        C  0.49340628  0.80510813  0.52700111    -0.05590
C770        C  0.03457370  0.84741131  0.53404779    -0.33020
C771        C  0.03374207  0.87797143  0.56704381     0.36230
C772        C  0.49156075  0.86578761  0.59485050    -0.05940
C773        C  0.45027822  0.82326488  0.58847445    -0.32910
C774        C  0.45037737  0.79335791  0.55369999     0.36140
H775        H  0.06786768  0.85661625  0.51431213     0.16510
O776        O  0.07531291  0.91879097  0.57353487    -0.60410
H777        H  0.41739883  0.81389967  0.60932633     0.16530
O778        O  0.40839985  0.75302974  0.54631449    -0.60510
H779        H  0.39348737  0.75663319  0.51480109     0.43520
H780        H  0.07110485  0.94018711  0.54983530     0.43480
C781        C  0.46381888  0.66281997  0.64386803    -0.05590
C782        C  0.00813759  0.70327912  0.63607732    -0.33020
C783        C  0.01549978  0.72851395  0.59243641     0.36230
C784        C  0.47860170  0.71339332  0.55514448    -0.05940
C785        C  0.43235844  0.67684076  0.56527924    -0.32910
C786        C  0.42448214  0.65196709  0.60920378     0.36140
H787        H  0.03908008  0.71359525  0.66208694     0.16510
O788        O  0.06086123  0.76475876  0.58447668    -0.60410
H789        H  0.40264972  0.66715725  0.53819618     0.16530
O790        O  0.37938125  0.61509804  0.61605145    -0.60510
H791        H  0.36129449  0.62628655  0.63685772     0.43520
H792        H  0.06150055  0.79005050  0.60370970     0.43480
C793        C  0.00767582  0.79502151  0.94012208    -0.05590
C794        C  0.05696073  0.82138231  0.92520787    -0.33020
C795        C  0.06752206  0.85115242  0.88426856     0.36230
C796        C  0.02847127  0.85387780  0.85659603    -0.05940
C797        C  0.47940603  0.82476858  0.86990204    -0.32910
C798        C  0.46896781  0.79676048  0.91135978     0.36140
H799        H  0.08748948  0.82120016  0.94721853     0.16510
O800        O  0.11592171  0.87871929  0.87312385    -0.60410
H801        H  0.44827467  0.82576500  0.84990726     0.16530
O802        O  0.42075429  0.77374236  0.92580883    -0.60510
H803        H  0.40160157  0.75366319  0.89852498     0.43520
H804        H  0.12512676  0.86022902  0.85171335     0.43480
C805        C  0.00546494  0.64643828  0.89760579    -0.05590
C806        C  0.02770537  0.65002900  0.94377264    -0.33020
C807        C  0.02212296  0.67693170  0.97881512     0.36230
C808        C  0.99356800  0.70049797  0.96783347    -0.05940
C809        C  0.46833444  0.69363861  0.92252530    -0.32910
C810        C  0.47529531  0.66800252  0.88700471     0.36140
H811        H  0.04974517  0.63212864  0.95257492     0.16510
O812        O  0.04561127  0.68057003  0.02321724    -0.60410
H813        H  0.44254573  0.70750039  0.91469430     0.16530
O814        O  0.45015207  0.66192676  0.84308247    -0.60510
H815        H  0.47177603  0.68826400  0.82270827     0.43520
H816        H  0.02529894  0.65160013  0.54064946     0.43480
C817        C  0.99660868  0.27461462  0.49064891     0.00440
C818        C  0.48939338  0.23145099  0.00373530     0.00440
C819        C  0.73598429  0.50597094  0.51120949     0.00440
C820        C  0.77198570  0.50518194  0.48327587     0.00440
C821        C  0.72874465  0.24127546  0.49134575     0.00440
C822        C  0.76596030  0.28429197  0.49895009     0.00440
O823        O  0.52683012  0.13129369  0.32134935    -0.80250
O824        O  0.90617244  0.37519136  0.31069558    -0.81810
O825        O  0.89048934  0.00086933  0.34413283    -0.78820
O826        O  0.52923442  0.99882961  0.40368032    -0.77210
O827        O  0.59913841  0.00354734  0.36878436    -0.79000
O828        O  0.85583851  0.00581773  0.26980080    -0.79930
O829        O  0.92454165  0.42778884  0.37045029    -0.81260
O830        O  0.99097684  0.07342852  0.37699088    -0.81550
Eu831      Eu  0.97193263  0.00298900  0.33655157     2.39200
O832        O  0.00879380  0.46136009  0.30544524    -0.89060
O833        O  0.96548352  0.05286359  0.27580907    -0.92660
C834        C  0.50846209  0.11529571  0.36309176     1.02030
C835        C  0.90256116  0.38711804  0.35384635     1.01850
C836        C  0.85557792  0.00246770  0.31670926     1.01790
C837        C  0.57273396  0.99960225  0.40527210     0.99650
H838        H  0.88682156  0.43949840  0.28129551     0.29400
O839        O  0.92017663  0.45928500  0.27146692    -1.01440
H840        H  0.56671357  0.06808001  0.33974905     0.29430
O841        O  0.55092644  0.05133403  0.31073812    -1.03990
O842        O  0.97071252  0.38156484  0.17097122    -0.81210
O843        O  0.59651648  0.14183297  0.18048678    -0.80750
O844        O  0.85570236  0.43467443  0.17203543    -0.79190
O845        O  0.57059357  0.43052379  0.32068281    -0.82530
O846        O  0.64972425  0.08609370  0.32061163    -0.80380
O847        O  0.92845729  0.08699210  0.18047401    -0.79030
O848        O  0.97968447  0.01500426  0.08871946    -0.80550
O849        O  0.61558783  0.01080221  0.14994588    -0.82480
O850        O  0.91151510  0.01446264  0.12322281    -0.79220
O851        O  0.65085978  0.00868933  0.22476038    -0.81890
O852        O  0.88090775  0.38068431  0.19425105    -0.77630
O853        O  0.50481569  0.14077321  0.20689023    -0.77660
O854        O  0.62652911  0.13973544  0.29079586    -0.77300
O855        O  0.99879399  0.37630563  0.28576769    -0.80800
O856        O  0.51214428  0.44005736  0.11791693    -0.80220
O857        O  0.58617531  0.08716031  0.12553584    -0.78550
Eu858      Eu  0.95817634  0.41634192  0.24258671     2.39770
Eu859      Eu  0.54613777  0.10033035  0.24953236     2.39530
Eu860      Eu  0.91658060  0.00927273  0.20977469     2.38400
Eu861      Eu  0.59062393  0.00893667  0.28357609     2.39880
Eu862      Eu  0.53503768  0.01179338  0.15731162     2.39790
O863        O  0.58544578  0.05776990  0.22143677    -0.92970
O864        O  0.95448483  0.46587689  0.18247988    -0.91860
C865        C  0.99089547  0.39764861  0.13008283     1.02200
C866        C  0.60486216  0.12863886  0.13984976     1.00920
C867        C  0.85214854  0.39373595  0.16981596     1.00310
C868        C  0.53488416  0.38895212  0.31749222     1.02320
C869        C  0.65264848  0.12707611  0.31982090     1.01240
C870        C  0.96434658  0.12843420  0.18099078     1.00090
C871        C  0.93714660  0.01597400  0.08675217     1.00150
C872        C  0.65043986  0.00933046  0.17774127     1.02760
H873        H  0.49916728  0.07426020  0.15811723     0.30130
O874        O  0.49837741  0.05506097  0.18549203    -1.05130
H875        H  0.55517394  0.44406133  0.20793974     0.32180
O876        O  0.54063015  0.46282209  0.21904265    -1.07690
C877        C  0.77609554  0.30692335  0.04790547    -0.05590
C878        C  0.79386349  0.28998789  0.08741160    -0.33020
C879        C  0.81342866  0.31568535  0.12971645     0.36230
C880        C  0.81694553  0.36022787  0.13310837    -0.05940
C881        C  0.79367656  0.37459236  0.09565252    -0.32910
C882        C  0.77308433  0.34805986  0.05365207     0.36140
H883        H  0.79559332  0.25793102  0.08427355     0.16510
O884        O  0.83207077  0.29784387  0.16613049    -0.60410
H885        H  0.79425265  0.40774908  0.09726783     0.16530
O886        O  0.75165284  0.36325963  0.01729213    -0.60510
H887        H  0.72022723  0.36028236  0.03037847     0.43520
H888        H  0.80445383  0.28249705  0.18867944     0.43480
C889        C  0.64025070  0.16197327  0.10715404    -0.05590
C890        C  0.63643505  0.20139813  0.09211798    -0.33020
C891        C  0.66515722  0.22812559  0.05404697     0.36230
C892        C  0.69811248  0.21527069  0.03182670    -0.05940
C893        C  0.70361114  0.17738224  0.04894411    -0.32910
C894        C  0.67543604  0.15116883  0.08665806     0.36140
H895        H  0.60984312  0.21017630  0.10823155     0.16510
O896        O  0.66114280  0.26655991  0.03889637    -0.60410
H897        H  0.73011139  0.16823141  0.03317658     0.16530
O898        O  0.68217661  0.11453469  0.10319857    -0.60510
H899        H  0.69702829  0.12303494  0.13636636     0.43520
H900        H  0.62897197  0.25557716  0.52057114     0.43480
C901        C  0.86867973  0.35327114  0.38680920    -0.05590
C902        C  0.88623476  0.34993207  0.43371266    -0.33020
C903        C  0.85311336  0.32741576  0.47020800     0.36230
C904        C  0.80152426  0.30868967  0.46024709    -0.05940
C905        C  0.78435732  0.31304120  0.41313657    -0.32910
C906        C  0.81751587  0.33337601  0.37604040     0.36140
H907        H  0.92579908  0.36618129  0.44242171     0.16510
O908        O  0.87161131  0.32408457  0.51552516    -0.60410
H909        H  0.74533233  0.30187072  0.40514407     0.16530
O910        O  0.79971232  0.33764833  0.33055032    -0.60510
H911        H  0.79513986  0.30999547  0.31309280     0.43520
H912        H  0.88420693  0.35482657  0.52975354     0.43480
C913        C  0.68010720  0.16067109  0.35950315    -0.05590
C914        C  0.66001694  0.18999795  0.37293362    -0.33020
C915        C  0.67686113  0.21680946  0.41443393     0.36230
C916        C  0.71625883  0.21693770  0.44345523    -0.05940
C917        C  0.73836473  0.18939555  0.42950374    -0.32910
C918        C  0.72039122  0.16128253  0.38799387     0.36140
H919        H  0.62872792  0.19056437  0.35268027     0.16510
O920        O  0.65445702  0.24320204  0.42639943    -0.60410
H921        H  0.76847354  0.18855624  0.45165690     0.16530
O922        O  0.74151207  0.13383532  0.37642802    -0.60510
H923        H  0.76970551  0.15310031  0.35580408     0.43520
H924        H  0.62359032  0.22201332  0.44240434     0.43480
C925        C  0.82038397  0.50971153  0.00377797    -0.05590
C926        C  0.83095481  0.47221731  0.00386230    -0.33020
C927        C  0.87677786  0.47609088  0.02182059     0.36230
C928        C  0.91242393  0.01782018  0.04070898    -0.05940
C929        C  0.90494213  0.05672540  0.03307844    -0.32910
C930        C  0.85934162  0.05283794  0.01430236     0.36140
H931        H  0.80350885  0.43985886  0.99044459     0.16510
O932        O  0.88525825  0.43835088  0.02334002    -0.60410
H933        H  0.93262464  0.08938845  0.04632182     0.16530
O934        O  0.85275470  0.09113781  0.00693346    -0.60510
H935        H  0.87416563  0.10762486  0.97953655     0.43520
H936        H  0.88376506  0.42889826  0.55791013     0.43480
C937        C  0.73803380  0.50667360  0.06543574    -0.05590
C938        C  0.70827183  0.46561628  0.08970719    -0.33020
C939        C  0.68411866  0.46572733  0.13202338     0.36230
C940        C  0.69142500  0.00730954  0.15189499    -0.05940
C941        C  0.72898752  0.04785195  0.13346051    -0.32910
C942        C  0.75120399  0.04802929  0.08953235     0.36140
H943        H  0.69847517  0.43337512  0.07250553     0.16510
O944        O  0.64865315  0.42525133  0.14992725    -0.60410
H945        H  0.73708099  0.07994243  0.15003146     0.16530
O946        O  0.78201496  0.08879270  0.06800910    -0.60510
H947        H  0.76401885  0.10771781  0.06644529     0.43520
H948        H  0.66601784  0.41607483  0.17610161     0.43480
C949        C  0.76762263  0.50174380  0.42937967    -0.05590
C950        C  0.75889021  0.45996856  0.40921597    -0.33020
C951        C  0.78242991  0.45905198  0.36692556     0.36230
C952        C  0.81305296  0.00008808  0.34306312    -0.05940
C953        C  0.81422276  0.04090852  0.35838178    -0.32910
C954        C  0.79123431  0.04189585  0.40114692     0.36140
H955        H  0.74041470  0.42866482  0.43003983     0.16510
O956        O  0.78089050  0.41868772  0.35303096    -0.60410
H957        H  0.83804227  0.07285114  0.34070516     0.16530
O958        O  0.79898272  0.08331809  0.41864163    -0.60510
H959        H  0.76577661  0.07980494  0.42679329     0.43520
H960        H  0.80618635  0.41485062  0.37423251     0.43480
C961        C  0.68839245  0.50228844  0.48953925    -0.05590
C962        C  0.67816270  0.03997930  0.49043791    -0.33020
C963        C  0.63319978  0.03709927  0.47106023     0.36230
C964        C  0.59762266  0.49606491  0.45060359    -0.05940
C965        C  0.60563885  0.45711342  0.45497878    -0.32910
C966        C  0.65095044  0.46016036  0.47341113     0.36140
H967        H  0.70600502  0.07241862  0.50381740     0.16510
O968        O  0.62644497  0.07573106  0.46771209    -0.60410
H969        H  0.57902724  0.42554952  0.43855127     0.16530
O970        O  0.65955386  0.42261918  0.97237372    -0.60510
H971        H  0.64884501  0.40702534  0.00403255     0.43520
H972        H  0.64021861  0.09015230  0.43620573     0.43480
C973        C  0.99340737  0.30510866  0.02700076    -0.05590
C974        C  0.53457499  0.34741169  0.03404754    -0.33020
C975        C  0.53374363  0.37797174  0.06704380     0.36230
C976        C  0.99156239  0.36578798  0.09485058    -0.05940
C977        C  0.95027967  0.32326543  0.08847439    -0.32910
C978        C  0.95037853  0.29335856  0.05369970     0.36140
H979        H  0.56786893  0.35661654  0.01431185     0.16510
O980        O  0.57531465  0.41879111  0.07353504    -0.60410
H981        H  0.91740033  0.31390031  0.10932634     0.16530
O982        O  0.90840078  0.25303057  0.04631412    -0.60510
H983        H  0.89348911  0.25663371  0.01480011     0.43520
H984        H  0.57110675  0.44018748  0.04983566     0.43480
C985        C  0.96381808  0.16282029  0.14386779    -0.05590
C986        C  0.50813699  0.20327927  0.13607719    -0.33020
C987        C  0.51549959  0.22851401  0.09243622     0.36230
C988        C  0.97860169  0.21339349  0.05514413    -0.05940
C989        C  0.93235826  0.17684108  0.06527870    -0.32910
C990        C  0.92448155  0.15196752  0.10920331     0.36140
H991        H  0.53907935  0.21359530  0.16208697     0.16510
O992        O  0.56086121  0.26475865  0.08447662    -0.60410
H993        H  0.90264971  0.16715766  0.03819546     0.16530
O994        O  0.87938049  0.11509864  0.11605086    -0.60510
H995        H  0.86129371  0.12628737  0.13685683     0.43520
H996        H  0.56150070  0.29005043  0.10370970     0.43480
C997        C  0.50767727  0.29502198  0.44012194    -0.05590
C998        C  0.55696233  0.32138270  0.42520808    -0.33020
C999        C  0.56752400  0.35115279  0.38426875     0.36230
C1000       C  0.52847341  0.35387809  0.35659580    -0.05940
C1001       C  0.97940806  0.32476891  0.36990144    -0.32910
C1002       C  0.96896949  0.29676094  0.41135928     0.36140
H1003       H  0.58749090  0.32120053  0.44721903     0.16510
O1004       O  0.61592375  0.37871972  0.37312445    -0.60410
H1005       H  0.94827686  0.32576529  0.34990632     0.16530
O1006       O  0.92075586  0.27374303  0.42580808    -0.60510
H1007       H  0.90160299  0.25366442  0.39852390     0.43520
H1008       H  0.62512914  0.36022943  0.35171432     0.43480
C1009       C  0.50546437  0.14643851  0.39760531    -0.05590
C1010       C  0.52770510  0.15002923  0.44377201    -0.33020
C1011       C  0.52212286  0.17693189  0.47881463     0.36230
C1012       C  0.49356785  0.20049812  0.46783320    -0.05940
C1013       C  0.96833395  0.19363871  0.42252524    -0.32910
C1014       C  0.97529461  0.16800266  0.38700452     0.36140
H1015       H  0.54974493  0.13212886  0.45257408     0.16510
O1016       O  0.54561129  0.18057016  0.52321667    -0.60410
H1017       H  0.94254517  0.20750045  0.41469452     0.16530
O1018       O  0.95015107  0.16192684  0.34308244    -0.60510
H1019       H  0.97177488  0.18826406  0.32270814     0.43520
H1020       H  0.52530082  0.15160193  0.04064876     0.43480
C1021       C  0.99660860  0.27461465  0.99064898     0.00440
C1022       C  0.48939337  0.23145093  0.50373522     0.00440
C1023       C  0.73598429  0.50597115  0.01120928     0.00440
C1024       C  0.77198577  0.50518227  0.98327567     0.00440
C1025       C  0.72874492  0.24127555  0.99134589     0.00440
C1026       C  0.76596048  0.28429211  0.99895022     0.00440
O1027       O  0.52683018  0.13129389  0.82134944    -0.80250
O1028       O  0.90617244  0.37519132  0.81069553    -0.81810
O1029       O  0.89048936  0.00086967  0.84413269    -0.78820
O1030       O  0.52923414  0.99882962  0.90368042    -0.77210
O1031       O  0.59913821  0.00354743  0.86878455    -0.79000
O1032       O  0.85583865  0.00581808  0.76980059    -0.79930
O1033       O  0.92454159  0.42778881  0.87045020    -0.81260
O1034       O  0.99097680  0.07342870  0.87699093    -0.81550
Eu1035     Eu  0.97193259  0.00298919  0.83655158     2.39200
O1036       O  0.00879372  0.46136005  0.80544517    -0.89060
O1037       O  0.96548359  0.05286382  0.77580908    -0.92660
C1038       C  0.50846209  0.11529589  0.86309182     1.02030
C1039       C  0.90256115  0.38711801  0.85384629     1.01850
C1040       C  0.85557800  0.00246808  0.81670905     1.01790
C1041       C  0.57273367  0.99960224  0.90527225     0.99650
H1042       H  0.88682147  0.43949830  0.78129537     0.29400
O1043       O  0.92017655  0.45928490  0.77146679    -1.01440
H1044       H  0.56671357  0.06808012  0.83974920     0.29430
O1045       O  0.55092647  0.05133417  0.81073824    -1.03990
O1046       O  0.97071261  0.38156483  0.67097115    -0.81210
O1047       O  0.59651665  0.14183341  0.68048711    -0.80750
O1048       O  0.85570230  0.43467431  0.67203527    -0.79190
O1049       O  0.57059347  0.43052374  0.82068282    -0.82530
O1050       O  0.64972429  0.08609377  0.82061185    -0.80380
O1051       O  0.92845745  0.08699234  0.68047402    -0.79030
O1052       O  0.97968498  0.01500466  0.58871944    -0.80550
O1053       O  0.61558826  0.01080258  0.64994610    -0.82480
O1054       O  0.91151554  0.01446295  0.62322274    -0.79220
O1055       O  0.65085997  0.00868950  0.72476067    -0.81890
O1056       O  0.88090776  0.38068424  0.69425091    -0.77630
O1057       O  0.50481584  0.14077343  0.70689029    -0.77660
O1058       O  0.62652917  0.13973554  0.79079611    -0.77300
O1059       O  0.99879393  0.37630556  0.78576767    -0.80800
O1060       O  0.51214451  0.44005736  0.61791691    -0.80220
O1061       O  0.58617600  0.08716083  0.62553626    -0.78550
Eu1062     Eu  0.95817632  0.41634186  0.74258663     2.39770
Eu1063     Eu  0.54613789  0.10033056  0.74953251     2.39530
Eu1064     Eu  0.91658082  0.00927301  0.70977462     2.38400
Eu1065     Eu  0.59062396  0.00893679  0.78357627     2.39880
Eu1066     Eu  0.53503807  0.01179372  0.65731169     2.39790
O1067       O  0.58544597  0.05777013  0.72143698    -0.92970
O1068       O  0.95448489  0.46587685  0.68247977    -0.91860
C1069       C  0.99089565  0.39764861  0.63008279     1.02200
C1070       C  0.60486258  0.12863938  0.63985017     1.00920
C1071       C  0.85214851  0.39373584  0.66981581     1.00310
C1072       C  0.53488408  0.38895206  0.81749222     1.02320
C1073       C  0.65264854  0.12707619  0.81982112     1.01240
C1074       C  0.96434673  0.12843444  0.68099083     1.00090
C1075       C  0.93714708  0.01597437  0.58675212     1.00150
C1076       C  0.65044021  0.00933076  0.67774156     1.02760
H1077       H  0.49916760  0.07426052  0.65811728     0.30130
O1078       O  0.49837769  0.05506125  0.68549206    -1.05130
H1079       H  0.55517398  0.44406132  0.70793973     0.32180
O1080       O  0.54063016  0.46282206  0.71904262    -1.07690
C1081       C  0.77609535  0.30692316  0.54790539    -0.05590
C1082       C  0.79386358  0.28998780  0.58741139    -0.33020
C1083       C  0.81342883  0.31568528  0.62971622     0.36230
C1084       C  0.81694549  0.36022772  0.63310825    -0.05940
C1085       C  0.79367625  0.37459207  0.59565255    -0.32910
C1086       C  0.77308392  0.34805955  0.55365212     0.36140
H1087       H  0.79559361  0.25793104  0.58427323     0.16510
O1088       O  0.83207123  0.29784389  0.66613010    -0.60410
H1089       H  0.79425215  0.40774872  0.59726795     0.16530
O1090       O  0.75165213  0.36325919  0.51729234    -0.60510
H1091       H  0.72022649  0.36028170  0.53037883     0.43520
H1092       H  0.80445438  0.28249688  0.68867911     0.43480
C1093       C  0.64025109  0.16197392  0.60715456    -0.05590
C1094       C  0.63643447  0.20139810  0.59211750    -0.33020
C1095       C  0.66515646  0.22812532  0.55404626     0.36230
C1096       C  0.69811229  0.21527075  0.53182664    -0.05940
C1097       C  0.70361196  0.17738308  0.54894508    -0.32910
C1098       C  0.67543721  0.15117005  0.58665943     0.36140
H1099       H  0.60984201  0.21017589  0.60823052     0.16510
O1100       O  0.66114140  0.26655915  0.53889487    -0.60410
H1101       H  0.73011277  0.16823266  0.53317810     0.16530
O1102       O  0.68217890  0.11453686  0.60320123    -0.60510
H1103       H  0.69703127  0.12303845  0.63636861     0.43520
H1104       H  0.62897375  0.25557851  0.02057203     0.43480
C1105       C  0.86867974  0.35327113  0.88680918    -0.05590
C1106       C  0.88623484  0.34993204  0.93371260    -0.33020
C1107       C  0.85311348  0.32741582  0.97020801     0.36230
C1108       C  0.80152438  0.30868983  0.96024719    -0.05940
C1109       C  0.78435737  0.31304143  0.91313671    -0.32910
C1110       C  0.81751587  0.33337615  0.87604048     0.36140
H1111       H  0.92579917  0.36618119  0.94242159     0.16510
O1112       O  0.87161146  0.32408463  0.01552515    -0.60410
H1113       H  0.74533239  0.30187105  0.90514430     0.16530
O1114       O  0.79971227  0.33764854  0.83055045    -0.60510
H1115       H  0.79513969  0.30999565  0.81309289     0.43520
H1116       H  0.88420703  0.35482661  0.02975354     0.43480
C1117       C  0.68010732  0.16067117  0.85950334    -0.05590
C1118       C  0.66001717  0.18999812  0.87293378    -0.33020
C1119       C  0.67686145  0.21680968  0.91443405     0.36230
C1120       C  0.71625915  0.21693787  0.94345531    -0.05940
C1121       C  0.73836497  0.18939566  0.92950382    -0.32910
C1122       C  0.72039132  0.16128255  0.88799403     0.36140
H1123       H  0.62872815  0.19056458  0.85268046     0.16510
O1124       O  0.65445738  0.24320227  0.92639957    -0.60410
H1125       H  0.76847379  0.18855632  0.95165695     0.16530
O1126       O  0.74151202  0.13383521  0.87642824    -0.60510
H1127       H  0.76970548  0.15310010  0.85580427     0.43520
H1128       H  0.62359132  0.22201378  0.94240559     0.43480
C1129       C  0.82038392  0.50971123  0.50377812    -0.05590
C1130       C  0.83095471  0.47221698  0.50386258    -0.33020
C1131       C  0.87677783  0.47609060  0.52182069     0.36230
C1132       C  0.91242445  0.01782062  0.54070895    -0.05940
C1133       C  0.90494234  0.05672570  0.53307868    -0.32910
C1134       C  0.85934171  0.05283805  0.51430276     0.36140
H1135       H  0.80350866  0.43985846  0.49044512     0.16510
O1136       O  0.88525817  0.43835057  0.52334027    -0.60410
H1137       H  0.93262467  0.08938875  0.54632223     0.16530
O1138       O  0.85275451  0.09113780  0.50693413    -0.60510
H1139       H  0.87416526  0.10762499  0.47953716     0.43520
H1140       H  0.88376520  0.42889850  0.05790985     0.43480
C1141       C  0.73803390  0.50667352  0.56543595    -0.05590
C1142       C  0.70827203  0.46561625  0.58970752    -0.33020
C1143       C  0.68411890  0.46572737  0.63202372     0.36230
C1144       C  0.69142548  0.00730999  0.65189535    -0.05940
C1145       C  0.72898771  0.04785245  0.63346063    -0.32910
C1146       C  0.75120409  0.04802979  0.58953242     0.36140
H1147       H  0.69847539  0.43337505  0.57250596     0.16510
O1148       O  0.64865349  0.42525139  0.64992773    -0.60410
H1149       H  0.73708099  0.07994292  0.65003147     0.16530
O1150       O  0.78201475  0.08879321  0.56800898    -0.60510
H1151       H  0.76401850  0.10771819  0.56644531     0.43520
H1152       H  0.66601823  0.41607508  0.67610221     0.43480
C1153       C  0.76762277  0.50174420  0.92937946    -0.05590
C1154       C  0.75889015  0.45996893  0.90921570    -0.33020
C1155       C  0.78242976  0.45905226  0.86692526     0.36230
C1156       C  0.81305298  0.00008844  0.84306284    -0.05940
C1157       C  0.81422275  0.04090884  0.85838156    -0.32910
C1158       C  0.79123422  0.04189609  0.90114670     0.36140
H1159       H  0.74041452  0.42866519  0.93003953     0.16510
O1160       O  0.78089009  0.41868793  0.85303058    -0.60410
H1161       H  0.83804228  0.07285150  0.84070501     0.16530
O1162       O  0.79898260  0.08331831  0.91864146    -0.60510
H1163       H  0.76577654  0.07980499  0.92679366     0.43520
H1164       H  0.80618584  0.41485065  0.87423211     0.43480
C1165       C  0.68839244  0.50228862  0.98953903    -0.05590
C1166       C  0.67816212  0.03997893  0.99043828    -0.33020
C1167       C  0.63319913  0.03709887  0.97106074     0.36230
C1168       C  0.59762253  0.49606496  0.95060357    -0.05940
C1169       C  0.60563879  0.45711351  0.95497871    -0.32910
C1170       C  0.65095044  0.46016051  0.97341096     0.36140
H1171       H  0.70600429  0.07241816  0.00381812     0.16510
O1172       O  0.62644408  0.07573054  0.96771309    -0.60410
H1173       H  0.57902719  0.42554958  0.93855124     0.16530
O1174       O  0.65955380  0.42261899  0.47237394    -0.60510
H1175       H  0.64884527  0.40702537  0.50403292     0.43520
H1176       H  0.64021853  0.09015255  0.93620724     0.43480
C1177       C  0.99340750  0.30510865  0.52700072    -0.05590
C1178       C  0.53457520  0.34741159  0.53404763    -0.33020
C1179       C  0.53374388  0.37797164  0.56704392     0.36230
C1180       C  0.99156258  0.36578796  0.59485056    -0.05940
C1181       C  0.95027977  0.32326550  0.58847425    -0.32910
C1182       C  0.95037860  0.29335862  0.55369956     0.36140
H1183       H  0.56786918  0.35661636  0.51431202     0.16510
O1184       O  0.57531500  0.41879091  0.57353532    -0.60410
H1185       H  0.91740039  0.31390044  0.60932611     0.16530
O1186       O  0.90840081  0.25303069  0.54631390    -0.60510
H1187       H  0.89348918  0.25663390  0.51479991     0.43520
H1188       H  0.57110728  0.44018738  0.54983596     0.43480
C1189       C  0.96381822  0.16282053  0.64386786    -0.05590
C1190       C  0.50813716  0.20327944  0.63607714    -0.33020
C1191       C  0.51549971  0.22851411  0.59243612     0.36230
C1192       C  0.97860174  0.21339356  0.55514410    -0.05940
C1193       C  0.93235827  0.17684128  0.56527882    -0.32910
C1194       C  0.92448160  0.15196780  0.60920349     0.36140
H1195       H  0.53907957  0.21359546  0.66208686     0.16510
O1196       O  0.56086135  0.26475866  0.58447640    -0.60410
H1197       H  0.90264966  0.16715787  0.53819565     0.16530
O1198       O  0.87938048  0.11509905  0.61605121    -0.60510
H1199       H  0.86129372  0.12628801  0.63685692     0.43520
H1200       H  0.56150104  0.29005046  0.60370959     0.43480
C1201       C  0.50767720  0.29502195  0.94012198    -0.05590
C1202       C  0.55696225  0.32138271  0.92520814    -0.33020
C1203       C  0.56752392  0.35115278  0.88426879     0.36230
C1204       C  0.52847333  0.35387803  0.85659580    -0.05940
C1205       C  0.97940798  0.32476878  0.86990141    -0.32910
C1206       C  0.96896940  0.29676082  0.91135925     0.36140
H1207       H  0.58749084  0.32120058  0.94721912     0.16510
O1208       O  0.61592367  0.37871974  0.87312451    -0.60410
H1209       H  0.94827677  0.32576512  0.84990625     0.16530
O1210       O  0.92075577  0.27374288  0.92580805    -0.60510
H1211       H  0.90160291  0.25366432  0.89852384     0.43520
H1212       H  0.62512910  0.36022946  0.85171440     0.43480
C1213       C  0.50546437  0.14643869  0.89760535    -0.05590
C1214       C  0.52770581  0.15002999  0.94377178    -0.33020
C1215       C  0.52212360  0.17693265  0.97881441     0.36230
C1216       C  0.49356794  0.20049829  0.96783326    -0.05940
C1217       C  0.96833345  0.19363839  0.92252559    -0.32910
C1218       C  0.97529400  0.16800228  0.88700485     0.36140
H1219       H  0.54974614  0.13213006  0.95257362     0.16510
O1220       O  0.54561267  0.18057151  0.02321620    -0.60410
H1221       H  0.94254432  0.20749980  0.91469514     0.16530
O1222       O  0.95014981  0.16192587  0.84308308    -0.60510
H1223       H  0.97177315  0.18826297  0.82270838     0.43520
H1224       H  0.52529902  0.15160048  0.54064887     0.43480
C1225       C  0.99660772  0.77461424  0.49064924     0.00440
C1226       C  0.48939310  0.73145064  0.00373549     0.00440
C1227       C  0.73598241  0.00597105  0.51120907     0.00440
C1228       C  0.77198398  0.00518236  0.48327545     0.00440
C1229       C  0.72874432  0.74127588  0.49134580     0.00440
C1230       C  0.76595935  0.78429265  0.49895006     0.00440
O1231       O  0.52683125  0.63129366  0.32134999    -0.80250
O1232       O  0.90617051  0.87519132  0.31069514    -0.81810
O1233       O  0.89049102  0.50086901  0.34413329    -0.78820
O1234       O  0.52923635  0.49882959  0.40368076    -0.77210
O1235       O  0.59914043  0.50354756  0.36878475    -0.79000
O1236       O  0.85584014  0.50581735  0.26980125    -0.79930
O1237       O  0.92453988  0.92778891  0.37044975    -0.81260
O1238       O  0.99097822  0.57342846  0.37699152    -0.81550
Eu1239     Eu  0.97193444  0.50298899  0.33655212     2.39200
O1240       O  0.00879184  0.96135993  0.30544479    -0.89060
O1241       O  0.96548503  0.55286347  0.27580962    -0.92660
C1242       C  0.50846321  0.61529565  0.36309239     1.02030
C1243       C  0.90255937  0.88711810  0.35384588     1.01850
C1244       C  0.85557955  0.50246727  0.31670972     1.01790
C1245       C  0.57273593  0.49960231  0.40527250     0.99650
H1246       H  0.88681966  0.93949847  0.28129508     0.29400
O1247       O  0.92017475  0.95928500  0.27146646    -1.01440
H1248       H  0.56671531  0.56808030  0.33974963     0.29430
O1249       O  0.55092821  0.55133428  0.31073870    -1.03990
O1250       O  0.97071049  0.88156441  0.17097095    -0.81210
O1251       O  0.59651761  0.64183336  0.18048742    -0.80750
O1252       O  0.85570038  0.93467456  0.17203522    -0.79190
O1253       O  0.57059151  0.93052340  0.32068261    -0.82530
O1254       O  0.64972593  0.58609414  0.32061203    -0.80380
O1255       O  0.92845867  0.58699192  0.18047443    -0.79030
O1256       O  0.97968664  0.51500469  0.08871993    -0.80550
O1257       O  0.61559000  0.51080290  0.14994633    -0.82480
O1258       O  0.91151709  0.51446275  0.12322322    -0.79220
O1259       O  0.65086189  0.50868995  0.22476083    -0.81890
O1260       O  0.88090561  0.88068437  0.19425100    -0.77630
O1261       O  0.50481703  0.64077322  0.20689049    -0.77660
O1262       O  0.62653091  0.63973577  0.29079563    -0.77300
O1263       O  0.99879134  0.87630535  0.28576830    -0.80800
O1264       O  0.51214202  0.94005684  0.11791650    -0.80220
O1265       O  0.58617715  0.58716080  0.12553664    -0.78550
Eu1266     Eu  0.95817434  0.91634176  0.24258632     2.39770
Eu1267     Eu  0.54613919  0.60033051  0.24953297     2.39530
Eu1268     Eu  0.91658232  0.50927263  0.20977511     2.38400
Eu1269     Eu  0.59062587  0.50893707  0.28357652     2.39880
Eu1270     Eu  0.53503970  0.51179376  0.15731216     2.39790
O1271       O  0.58544753  0.55777032  0.22143736    -0.92970
O1272       O  0.95448283  0.96587674  0.18247948    -0.91860
C1273       C  0.99089333  0.89764810  0.13008249     1.02200
C1274       C  0.60486354  0.62863933  0.13985049     1.00920
C1275       C  0.85214645  0.89373603  0.16981590     1.00310
C1276       C  0.53488185  0.88895180  0.31749245     1.02320
C1277       C  0.65265011  0.62707653  0.31982098     1.01240
C1278       C  0.96434786  0.62843408  0.18099110     1.00090
C1279       C  0.93714871  0.51597431  0.08675261     1.00150
C1280       C  0.65044205  0.50933119  0.17774171     1.02760
H1281       H  0.49916893  0.57426030  0.15811780     0.30130
O1282       O  0.49837911  0.55506108  0.18549258    -1.05130
H1283       H  0.55517183  0.94406089  0.20793931     0.32180
O1284       O  0.54062813  0.96282173  0.21904220    -1.07690
C1285       C  0.77609419  0.80692369  0.04790528    -0.05590
C1286       C  0.79386231  0.78998830  0.08741132    -0.33020
C1287       C  0.81342704  0.81568558  0.12971631     0.36230
C1288       C  0.81694347  0.86022793  0.13310837    -0.05940
C1289       C  0.79367430  0.87459228  0.09565262    -0.32910
C1290       C  0.77308236  0.84805988  0.05365206     0.36140
H1291       H  0.79559257  0.75793165  0.08427313     0.16510
O1292       O  0.83206922  0.79784412  0.16613032    -0.60410
H1293       H  0.79425002  0.90774885  0.09726806     0.16530
O1294       O  0.75165054  0.86325945  0.01729224    -0.60510
H1295       H  0.72022473  0.86028166  0.03037858     0.43520
H1296       H  0.80445219  0.78249700  0.18867912     0.43480
C1297       C  0.64025169  0.66197387  0.10715470    -0.05590
C1298       C  0.63643479  0.70139798  0.09211794    -0.33020
C1299       C  0.66515634  0.72812524  0.05404654     0.36230
C1300       C  0.69811208  0.71527082  0.03182650    -0.05940
C1301       C  0.70361196  0.67738316  0.04894455    -0.32910
C1302       C  0.67543760  0.65117004  0.08665902     0.36140
H1303       H  0.60984241  0.71017567  0.10823131     0.16510
O1304       O  0.66114097  0.76655898  0.03889542    -0.60410
H1305       H  0.73011269  0.66823283  0.03317724     0.16530
O1306       O  0.68217942  0.61453679  0.10320037    -0.60510
H1307       H  0.69703205  0.62303824  0.13636767     0.43520
H1308       H  0.62897165  0.75557686  0.52057131     0.43480
C1309       C  0.86867807  0.85327132  0.38680881    -0.05590
C1310       C  0.88623338  0.84993212  0.43371211    -0.33020
C1311       C  0.85311217  0.82741607  0.47020765     0.36230
C1312       C  0.80152308  0.80869043  0.46024705    -0.05940
C1313       C  0.78435585  0.81304211  0.41313672    -0.32910
C1314       C  0.81751417  0.83337662  0.37604034     0.36140
H1315       H  0.92579775  0.86618106  0.44242088     0.16510
O1316       O  0.87161027  0.82408463  0.51552466    -0.60410
H1317       H  0.74533082  0.80187178  0.40514454     0.16530
O1318       O  0.79971042  0.83764904  0.33055039    -0.60510
H1319       H  0.79513750  0.80999605  0.31309286     0.43520
H1320       H  0.88420595  0.85482655  0.52975323     0.43480
C1321       C  0.68010837  0.66067156  0.35950326    -0.05590
C1322       C  0.66001745  0.68999793  0.37293360    -0.33020
C1323       C  0.67686116  0.71680944  0.41443390     0.36230
C1324       C  0.71625900  0.71693816  0.44345531    -0.05940
C1325       C  0.73836562  0.68939657  0.42950393    -0.32910
C1326       C  0.72039258  0.66128352  0.38799407     0.36140
H1327       H  0.62872826  0.69056393  0.35268017     0.16510
O1328       O  0.65445637  0.74320146  0.42639932    -0.60410
H1329       H  0.76847461  0.68855771  0.45165717     0.16530
O1330       O  0.74151408  0.63383680  0.37642833    -0.60510
H1331       H  0.76970752  0.65310210  0.35580453     0.43520
H1332       H  0.62359026  0.72201257  0.44240500     0.43480
C1333       C  0.82038190  0.00971154  0.00377754    -0.05590
C1334       C  0.83095242  0.97221713  0.00386209    -0.33020
C1335       C  0.87677539  0.97609049  0.02182039     0.36230
C1336       C  0.91242614  0.51782056  0.04070941    -0.05940
C1337       C  0.90494405  0.55672565  0.03307904    -0.32910
C1338       C  0.85934349  0.55283799  0.01430292     0.36140
H1339       H  0.80350627  0.93985870  0.99044450     0.16510
O1340       O  0.88525547  0.93835033  0.02333994    -0.60410
H1341       H  0.93262634  0.58938870  0.04632261     0.16530
O1342       O  0.85275632  0.59113773  0.00693401    -0.60510
H1343       H  0.87416716  0.60762483  0.97953707     0.43520
H1344       H  0.88376330  0.92889845  0.55790932     0.43480
C1345       C  0.73803145  0.00667286  0.06543526    -0.05590
C1346       C  0.70826905  0.96561545  0.08970633    -0.33020
C1347       C  0.68411590  0.96572642  0.13202255     0.36230
C1348       C  0.69142731  0.50731047  0.15189542    -0.05940
C1349       C  0.72898943  0.54785292  0.13346056    -0.32910
C1350       C  0.75120592  0.54803015  0.08953244     0.36140
H1351       H  0.69847205  0.93337436  0.07250436     0.16510
O1352       O  0.64864998  0.92525045  0.14992605    -0.60410
H1353       H  0.73708257  0.57994344  0.15003120     0.16530
O1354       O  0.78201653  0.58879352  0.06800885    -0.60510
H1355       H  0.76402038  0.60771859  0.06644533     0.43520
H1356       H  0.66601442  0.91607341  0.17610018     0.43480
C1357       C  0.76762106  0.00174445  0.42937923    -0.05590
C1358       C  0.75888837  0.95996921  0.40921533    -0.33020
C1359       C  0.78242804  0.95905261  0.36692491     0.36230
C1360       C  0.81305451  0.50008744  0.34306357    -0.05940
C1361       C  0.81422397  0.54090780  0.35838204    -0.32910
C1362       C  0.79123553  0.54189511  0.40114719     0.36140
H1363       H  0.74041267  0.92866542  0.43003907     0.16510
O1364       O  0.78088827  0.91868827  0.35303010    -0.60410
H1365       H  0.83804324  0.57285042  0.34070527     0.16530
O1366       O  0.79898355  0.58331729  0.41864172    -0.60510
H1367       H  0.76577712  0.57980421  0.42679200     0.43520
H1368       H  0.80618398  0.91485090  0.37423161     0.43480
C1369       C  0.68839056  0.00228854  0.48953880    -0.05590
C1370       C  0.67816468  0.53997926  0.49043827    -0.33020
C1371       C  0.63320180  0.53709928  0.47106057     0.36230
C1372       C  0.59762068  0.99606489  0.45060322    -0.05940
C1373       C  0.60563695  0.95711344  0.45497837    -0.32910
C1374       C  0.65094859  0.96016044  0.47341064     0.36140
H1375       H  0.70600706  0.57241859  0.50381766     0.16510
O1376       O  0.62644710  0.57573112  0.46771233    -0.60410
H1377       H  0.57902538  0.92554953  0.43855085     0.16530
O1378       O  0.65955212  0.92261917  0.97237221    -0.60510
H1379       H  0.64884306  0.90702479  0.00403075     0.43520
H1380       H  0.64022098  0.59015240  0.43620606     0.43480
C1381       C  0.99340608  0.80510801  0.02700092    -0.05590
C1382       C  0.53457334  0.84741133  0.03404738    -0.33020
C1383       C  0.53374164  0.87797143  0.06704337     0.36230
C1384       C  0.99156045  0.86578743  0.09485031    -0.05940
C1385       C  0.95027805  0.82326460  0.08847443    -0.32910
C1386       C  0.95037722  0.79335767  0.05369992     0.36140
H1387       H  0.56786725  0.85661642  0.01431156     0.16510
O1388       O  0.57531230  0.91879116  0.07353411    -0.60410
H1389       H  0.91739872  0.81389928  0.10932643     0.16530
O1390       O  0.90839974  0.75302947  0.04631446    -0.60510
H1391       H  0.89348716  0.75663291  0.01480112     0.43520
H1392       H  0.57110382  0.94018712  0.04983457     0.43480
C1393       C  0.96381905  0.66282010  0.14386812    -0.05590
C1394       C  0.50813781  0.70327917  0.13607726    -0.33020
C1395       C  0.51549995  0.72851393  0.09243632     0.36230
C1396       C  0.97860178  0.71339330  0.05514446    -0.05940
C1397       C  0.93235850  0.67684084  0.06527937    -0.32910
C1398       C  0.92448224  0.65196726  0.10920396     0.36140
H1399       H  0.53908036  0.71359528  0.16208682     0.16510
O1400       O  0.56086141  0.76475869  0.08447647    -0.60410
H1401       H  0.90264971  0.66715738  0.03819641     0.16530
O1402       O  0.87938129  0.61509831  0.11605178    -0.60510
H1403       H  0.86129458  0.62628701  0.13685787     0.43520
H1404       H  0.56150068  0.79005056  0.10370923     0.43480
C1405       C  0.50767597  0.79502169  0.44012224    -0.05590
C1406       C  0.55696089  0.82138258  0.42520810    -0.33020
C1407       C  0.56752220  0.85115264  0.38426875     0.36230
C1408       C  0.52847139  0.85387783  0.35659609    -0.05940
C1409       C  0.97940616  0.82476855  0.36990205    -0.32910
C1410       C  0.96896795  0.79676054  0.41135986     0.36140
H1411       H  0.58748965  0.82120053  0.44721883     0.16510
O1412       O  0.61592185  0.87871965  0.37312416    -0.60410
H1413       H  0.94827478  0.82576484  0.34990719     0.16530
O1414       O  0.92075442  0.77374237  0.42580888    -0.60510
H1415       H  0.90160171  0.75366324  0.39852499     0.43520
H1416       H  0.62512710  0.86022944  0.35171378     0.43480
C1417       C  0.50546513  0.64643839  0.39760588    -0.05590
C1418       C  0.52770538  0.65002899  0.44377281    -0.33020
C1419       C  0.52212294  0.67693171  0.47881526     0.36230
C1420       C  0.49356811  0.70049809  0.46783351    -0.05940
C1421       C  0.96833473  0.69363883  0.42252526    -0.32910
C1422       C  0.97529566  0.66800277  0.38700470     0.36140
H1423       H  0.54974506  0.63212854  0.45257518     0.16510
O1424       O  0.54561110  0.68056995  0.52321745    -0.60410
H1425       H  0.94254608  0.70750066  0.41469417     0.16530
O1426       O  0.95015262  0.66192715  0.34308236    -0.60510
H1427       H  0.97177671  0.68826441  0.32270827     0.43520
H1428       H  0.52529917  0.65160023  0.04064932     0.43480
C1429       C  0.99660759  0.77461412  0.99064911     0.00440
C1430       C  0.48939313  0.73145072  0.50373554     0.00440
C1431       C  0.73598210  0.00597085  0.01120880     0.00440
C1432       C  0.77198380  0.00518244  0.98327516     0.00440
C1433       C  0.72874428  0.74127581  0.99134570     0.00440
C1434       C  0.76595933  0.78429256  0.99895002     0.00440
O1435       O  0.52683107  0.63129359  0.82134988    -0.80250
O1436       O  0.90617050  0.87519153  0.81069511    -0.81810
O1437       O  0.89049094  0.50086906  0.84413310    -0.78820
O1438       O  0.52923620  0.49882959  0.90368069    -0.77210
O1439       O  0.59914031  0.50354758  0.86878474    -0.79000
O1440       O  0.85584010  0.50581736  0.76980102    -0.79930
O1441       O  0.92453973  0.92778911  0.87044972    -0.81260
O1442       O  0.99097804  0.57342837  0.87699140    -0.81550
Eu1443     Eu  0.97193432  0.50298893  0.83655200     2.39200
O1444       O  0.00879182  0.96136010  0.80544487    -0.89060
O1445       O  0.96548491  0.55286337  0.77580948    -0.92660
C1446       C  0.50846301  0.61529556  0.86309228     1.02030
C1447       C  0.90255928  0.88711830  0.85384585     1.01850
C1448       C  0.85557951  0.50246735  0.81670949     1.01790
C1449       C  0.57273579  0.49960233  0.90527247     0.99650
H1450       H  0.88681967  0.93949871  0.78129497     0.29400
O1451       O  0.92017478  0.95928523  0.77146640    -1.01440
H1452       H  0.56671519  0.56808026  0.83974958     0.29430
O1453       O  0.55092810  0.55133423  0.81073865    -1.03990
O1454       O  0.97071064  0.88156466  0.67097101    -0.81210
O1455       O  0.59651756  0.64183338  0.68048746    -0.80750
O1456       O  0.85570057  0.93467492  0.67203508    -0.79190
O1457       O  0.57059148  0.93052344  0.82068268    -0.82530
O1458       O  0.64972583  0.58609411  0.82061197    -0.80380
O1459       O  0.92845856  0.58699177  0.68047426    -0.79030
O1460       O  0.97968679  0.51500463  0.58871981    -0.80550
O1461       O  0.61559016  0.51080299  0.64994639    -0.82480
O1462       O  0.91151718  0.51446263  0.62322305    -0.79220
O1463       O  0.65086192  0.50868996  0.72476093    -0.81890
O1464       O  0.88090577  0.88068471  0.69425086    -0.77630
O1465       O  0.50481687  0.64077309  0.70689039    -0.77660
O1466       O  0.62653076  0.63973571  0.79079559    -0.77300
O1467       O  0.99879126  0.87630548  0.78576833    -0.80800
O1468       O  0.51214248  0.94005710  0.61791664    -0.80220
O1469       O  0.58617730  0.58716087  0.62553670    -0.78550
Eu1470     Eu  0.95817442  0.91634201  0.74258632     2.39770
Eu1471     Eu  0.54613908  0.60033044  0.74953290     2.39530
Eu1472     Eu  0.91658228  0.50927252  0.70977494     2.38400
Eu1473     Eu  0.59062580  0.50893704  0.78357651     2.39880
Eu1474     Eu  0.53503979  0.51179376  0.65731211     2.39790
O1475       O  0.58544750  0.55777030  0.72143735    -0.92970
O1476       O  0.95448315  0.96587708  0.68247947    -0.91860
C1477       C  0.99089364  0.89764834  0.63008261     1.02200
C1478       C  0.60486360  0.62863939  0.63985056     1.00920
C1479       C  0.85214663  0.89373639  0.66981574     1.00310
C1480       C  0.53488178  0.88895186  0.81749248     1.02320
C1481       C  0.65265001  0.62707650  0.81982092     1.01240
C1482       C  0.96434771  0.62843394  0.68099097     1.00090
C1483       C  0.93714884  0.51597420  0.58675246     1.00150
C1484       C  0.65044217  0.50933126  0.67774183     1.02760
H1485       H  0.49916893  0.57426025  0.65811768     0.30130
O1486       O  0.49837909  0.55506101  0.68549246    -1.05130
H1487       H  0.55517198  0.94406111  0.70793943     0.32180
O1488       O  0.54062827  0.96282195  0.71904229    -1.07690
C1489       C  0.77609423  0.80692388  0.54790526    -0.05590
C1490       C  0.79386223  0.78998850  0.58741139    -0.33020
C1491       C  0.81342702  0.81568586  0.62971632     0.36230
C1492       C  0.81694364  0.86022829  0.63310822    -0.05940
C1493       C  0.79367464  0.87459269  0.59565234    -0.32910
C1494       C  0.77308262  0.84806020  0.55365186     0.36140
H1495       H  0.79559236  0.75793178  0.58427333     0.16510
O1496       O  0.83206906  0.79784440  0.66613044    -0.60410
H1497       H  0.79425053  0.90774934  0.59726766     0.16530
O1498       O  0.75165094  0.86325980  0.51729193    -0.60510
H1499       H  0.72022500  0.86028186  0.53037810     0.43520
H1500       H  0.80445201  0.78249745  0.68867926     0.43480
C1501       C  0.64025178  0.66197400  0.60715484    -0.05590
C1502       C  0.63643476  0.70139802  0.59211797    -0.33020
C1503       C  0.66515633  0.72812529  0.55404659     0.36230
C1504       C  0.69811217  0.71527093  0.53182664    -0.05940
C1505       C  0.70361219  0.67738338  0.54894483    -0.32910
C1506       C  0.67543785  0.65117029  0.58665932     0.36140
H1507       H  0.60984229  0.71017564  0.60823126     0.16510
O1508       O  0.66114090  0.76655899  0.53889540    -0.60410
H1509       H  0.73011302  0.66823313  0.53317760     0.16530
O1510       O  0.68217985  0.61453718  0.60320085    -0.60510
H1511       H  0.69703256  0.62303882  0.63636811     0.43520
H1512       H  0.62897185  0.75557690  0.02057111     0.43480
C1513       C  0.86867798  0.85327149  0.88680877    -0.05590
C1514       C  0.88623332  0.84993220  0.93371203    -0.33020
C1515       C  0.85311215  0.82741607  0.97020757     0.36230
C1516       C  0.80152304  0.80869044  0.96024702    -0.05940
C1517       C  0.78435578  0.81304221  0.91313673    -0.32910
C1518       C  0.81751407  0.83337680  0.87604035     0.36140
H1519       H  0.92579770  0.86618113  0.94242078     0.16510
O1520       O  0.87161028  0.82408454  0.01552455    -0.60410
H1521       H  0.74533076  0.80187190  0.90514460     0.16530
O1522       O  0.79971029  0.83764929  0.83055044    -0.60510
H1523       H  0.79513739  0.80999634  0.81309283     0.43520
H1524       H  0.88420597  0.85482643  0.02975320     0.43480
C1525       C  0.68010833  0.66067155  0.85950314    -0.05590
C1526       C  0.66001750  0.68999801  0.87293344    -0.33020
C1527       C  0.67686122  0.71680951  0.91443374     0.36230
C1528       C  0.71625900  0.71693815  0.94345518    -0.05940
C1529       C  0.73836554  0.68939649  0.92950384    -0.32910
C1530       C  0.72039247  0.66128343  0.88799399     0.36140
H1531       H  0.62872835  0.69056407  0.85267997     0.16510
O1532       O  0.65445648  0.74320157  0.92639915    -0.60410
H1533       H  0.76847449  0.68855757  0.95165710     0.16530
O1534       O  0.74151384  0.63383660  0.87642832    -0.60510
H1535       H  0.76970732  0.65310181  0.85580453     0.43520
H1536       H  0.62359028  0.72201269  0.94240471     0.43480
C1537       C  0.82038218  0.00971161  0.50377775    -0.05590
C1538       C  0.83095304  0.97221739  0.50386195    -0.33020
C1539       C  0.87677611  0.97609094  0.52182015     0.36230
C1540       C  0.91242622  0.51782035  0.54070926    -0.05940
C1541       C  0.90494414  0.55672543  0.53307879    -0.32910
C1542       C  0.85934351  0.55283773  0.51430281     0.36140
H1543       H  0.80350707  0.93985896  0.49044419     0.16510
O1544       O  0.88525648  0.93835093  0.52333951    -0.60410
H1545       H  0.93262648  0.58938853  0.54632221     0.16530
O1546       O  0.85275634  0.59113746  0.50693384    -0.60510
H1547       H  0.87416708  0.60762448  0.47953681     0.43520
H1548       H  0.88376280  0.92889823  0.05790985     0.43480
C1549       C  0.73803185  0.00667331  0.56543554    -0.05590
C1550       C  0.70826984  0.96561593  0.58970687    -0.33020
C1551       C  0.68411672  0.96572688  0.63202313     0.36230
C1552       C  0.69142747  0.50731054  0.65189560    -0.05940
C1553       C  0.72898952  0.54785298  0.63346062    -0.32910
C1554       C  0.75120599  0.54803013  0.58953252     0.36140
H1555       H  0.69847313  0.93337481  0.57250510     0.16510
O1556       O  0.64865118  0.92525086  0.64992691    -0.60410
H1557       H  0.73708262  0.57994352  0.65003117     0.16530
O1558       O  0.78201657  0.58879345  0.56800882    -0.60510
H1559       H  0.76402049  0.60771858  0.56644540     0.43520
H1560       H  0.66601585  0.91607427  0.67610120     0.43480
C1561       C  0.76762097  0.00174465  0.92937893    -0.05590
C1562       C  0.75888836  0.95996945  0.90921497    -0.33020
C1563       C  0.78242806  0.95905292  0.86692454     0.36230
C1564       C  0.81305453  0.50008770  0.84306332    -0.05940
C1565       C  0.81422425  0.54090814  0.85838187    -0.32910
C1566       C  0.79123586  0.54189553  0.90114703     0.36140
H1567       H  0.74041268  0.92866562  0.93003866     0.16510
O1568       O  0.78088833  0.91868862  0.85302968    -0.60410
H1569       H  0.83804366  0.57285073  0.84070513     0.16530
O1570       O  0.79898413  0.58331777  0.91864161    -0.60510
H1571       H  0.76577782  0.57980476  0.92679226     0.43520
H1572       H  0.80618404  0.91485124  0.87423118     0.43480
C1573       C  0.68839024  0.00228834  0.98953859    -0.05590
C1574       C  0.67816461  0.53997940  0.99043810    -0.33020
C1575       C  0.63320166  0.53709935  0.97106052     0.36230
C1576       C  0.59762023  0.99606462  0.95060335    -0.05940
C1577       C  0.60563670  0.95711325  0.95497804    -0.32910
C1578       C  0.65094842  0.96016031  0.97341009     0.36140
H1579       H  0.70600697  0.57241874  0.00381749     0.16510
O1580       O  0.62644687  0.57573115  0.96771234    -0.60410
H1581       H  0.57902524  0.92554944  0.93855026     0.16530
O1582       O  0.65955206  0.92261915  0.47237328    -0.60510
H1583       H  0.64884330  0.90702528  0.50403211     0.43520
H1584       H  0.64022071  0.59015247  0.93620607     0.43480
C1585       C  0.99340628  0.80510813  0.52700111    -0.05590
C1586       C  0.53457370  0.84741131  0.53404779    -0.33020
C1587       C  0.53374207  0.87797143  0.56704381     0.36230
C1588       C  0.99156075  0.86578761  0.59485049    -0.05940
C1589       C  0.95027823  0.82326488  0.58847445    -0.32910
C1590       C  0.95037738  0.79335791  0.55369999     0.36140
H1591       H  0.56786768  0.85661625  0.51431213     0.16510
O1592       O  0.57531291  0.91879096  0.57353488    -0.60410
H1593       H  0.91739883  0.81389967  0.60932633     0.16530
O1594       O  0.90839985  0.75302974  0.54631449    -0.60510
H1595       H  0.89348737  0.75663319  0.51480109     0.43520
H1596       H  0.57110485  0.94018711  0.54983530     0.43480
C1597       C  0.96381888  0.66281997  0.64386803    -0.05590
C1598       C  0.50813759  0.70327912  0.63607732    -0.33020
C1599       C  0.51549978  0.72851395  0.59243641     0.36230
C1600       C  0.97860170  0.71339332  0.55514448    -0.05940
C1601       C  0.93235845  0.67684076  0.56527924    -0.32910
C1602       C  0.92448214  0.65196709  0.60920378     0.36140
H1603       H  0.53908008  0.71359525  0.66208694     0.16510
O1604       O  0.56086123  0.76475876  0.58447668    -0.60410
H1605       H  0.90264973  0.66715725  0.53819618     0.16530
O1606       O  0.87938125  0.61509804  0.61605145    -0.60510
H1607       H  0.86129449  0.62628655  0.63685771     0.43520
H1608       H  0.56150055  0.79005050  0.60370970     0.43480
C1609       C  0.50767582  0.79502151  0.94012208    -0.05590
C1610       C  0.55696073  0.82138231  0.92520786    -0.33020
C1611       C  0.56752206  0.85115242  0.88426856     0.36230
C1612       C  0.52847127  0.85387780  0.85659603    -0.05940
C1613       C  0.97940604  0.82476858  0.86990204    -0.32910
C1614       C  0.96896781  0.79676048  0.91135978     0.36140
H1615       H  0.58748948  0.82120016  0.94721853     0.16510
O1616       O  0.61592171  0.87871928  0.87312385    -0.60410
H1617       H  0.94827467  0.82576500  0.84990726     0.16530
O1618       O  0.92075429  0.77374236  0.92580883    -0.60510
H1619       H  0.90160157  0.75366319  0.89852498     0.43520
H1620       H  0.62512676  0.86022902  0.85171334     0.43480
C1621       C  0.50546494  0.64643828  0.89760579    -0.05590
C1622       C  0.52770537  0.65002900  0.94377264    -0.33020
C1623       C  0.52212296  0.67693170  0.97881512     0.36230
C1624       C  0.49356800  0.70049797  0.96783347    -0.05940
C1625       C  0.96833444  0.69363861  0.92252530    -0.32910
C1626       C  0.97529531  0.66800252  0.88700471     0.36140
H1627       H  0.54974516  0.63212864  0.95257492     0.16510
O1628       O  0.54561127  0.68057003  0.02321724    -0.60410
H1629       H  0.94254573  0.70750039  0.91469430     0.16530
O1630       O  0.95015208  0.66192676  0.84308247    -0.60510
H1631       H  0.97177603  0.68826400  0.82270827     0.43520
H1632       H  0.52529893  0.65160013  0.54064946     0.43480
loop_ 
_geom_bond_atom_site_label_1 
_geom_bond_atom_site_label_2 
_geom_bond_distance 
_geom_bond_site_symmetry_2 
_ccdc_geom_bond_type 
C1         C1022   1.373       .  D
C1          C361   1.475       .  S
C1          C997   1.512       .  S
C2         C1021   1.373   1_554  D
C2          C988   1.511       .  S
C2          C400   1.489   1_554  S
C3            C4   1.369       .  D
C3          C145   1.486       .  S
C3          C325   1.495       .  S
C4          C133   1.490       .  S
C4          C313   1.487       .  S
C5            C6   1.367       .  D
C5          C100   1.509       .  S
C5          C280   1.467       .  S
C6           C88   1.486       .  S
C6          C265   1.513       .  S
O7           C18   1.291       .  A
O7          Eu43   2.461       .  S
O8           C19   1.289       .  A
O8          Eu42   2.452       .  S
O9           C20   1.289       .  A
O9          Eu15   2.445       .  S
O10          C21   1.300       .  A
O10        Eu831   2.521   1_465  S
O11          C21   1.278   1_545  A
O11         Eu45   2.364       .  S
O12          C20   1.296       .  A
O12         Eu44   2.486       .  S
O13          C19   1.283       .  A
O13        Eu423   2.411       .  S
O14         C834   1.283       .  A
O14         Eu15   2.414       .  S
Eu15        O826   2.521   1_545  S
Eu15        O421   2.411   1_545  S
Eu15         O17   2.371       .  S
Eu15        O841   2.319       .  S
Eu15        O424   2.317   1_545  S
Eu15        O431   2.370   1_545  S
O16         Eu42   2.327       .  S
O16        Eu423   2.317       .  S
O16       Eu1269   2.345       .  S
O17         Eu44   2.359       .  S
O17        Eu859   2.355       .  S
C18         O830   1.283   1_455  A
C18         C193   1.453       .  S
C19          C85   1.450       .  S
C20         C136   1.473       .  S
C21         C556   1.459       .  S
H22          O23   0.966       .  S
O23         Eu42   2.354       .  S
O23        Eu423   2.370       .  S
O23        Eu452   2.362       .  S
H24          O25   0.963       .  S
O25         Eu43   2.342       .  S
O25         Eu45   2.362       .  S
O25        Eu831   2.319   1_455  S
O26          C49   1.287       .  A
O26         Eu42   2.438       .  S
O27          C50   1.289       .  A
O27         Eu43   2.455       .  S
O28          C51   1.303       .  A
O28        Eu452   2.528       .  S
O29          C52   1.306       .  A
O29        Eu453   2.556       .  S
O30          C53   1.308       .  A
O30         Eu45   2.563       .  S
O31          C54   1.303       .  A
O31         Eu44   2.524       .  S
O32          C55   1.297       .  A
O32        Eu862   2.500       .  S
O33          C56   1.292       .  A
O33         Eu46   2.463       .  S
O34          C55   1.282       .  A
O34         Eu44   2.392       .  S
O35          C56   1.296       .  A
O35         Eu45   2.492       .  S
O36          C51   1.287       .  A
O36         Eu42   2.439       .  S
O37         C870   1.289   1_455  A
O37         Eu43   2.443       .  S
O38          C53   1.286       .  A
O38         Eu43   2.424       .  S
O39         C868   1.287       .  A
O39         Eu42   2.424       .  S
O40         C865   1.284   1_455  A
O40        Eu454   2.415       .  S
O41          C50   1.285       .  A
O41         Eu46   2.412       .  S
Eu42         O48   2.322       .  S
Eu42        O876   2.367       .  S
Eu43         O47   2.367       .  S
Eu43         O58   2.327   1_455  S
Eu43        O833   2.355   1_455  S
Eu44        O436   2.528   1_545  S
Eu44        O431   2.362   1_545  S
Eu44        O874   2.354       .  S
Eu44        O456   2.348   1_545  S
Eu45        O437   2.556   1_545  S
Eu45         O47   2.360       .  S
Eu45       O1240   2.345   1_545  S
Eu45        O468   2.369   1_545  S
Eu46        O848   2.500   1_455  S
Eu46        O448   2.415   1_545  S
Eu46         O47   2.362       .  S
Eu46         O58   2.325   1_455  S
Eu46        O468   2.359   1_545  S
Eu46       O1272   2.333   1_445  S
O48        Eu452   2.348       .  S
O48       Eu1270   2.333       .  S
C49         O856   1.284       .  A
C49         C160   1.457       .  S
C50          C73   1.457       .  S
C51          C64   1.512       .  S
C52         O855   1.287   1_455  A
C52         C184   1.506       .  S
C53          C97   1.508       .  S
C54         O853   1.289       .  A
C54         C169   1.506       .  S
C55         C112   1.458       .  S
C56         C124   1.482       .  S
H57          O58   0.963       .  S
O58        Eu860   2.354       .  S
H59          O60   0.966       .  S
O60        Eu858   2.367   1_455  S
O60        Eu453   2.369       .  S
O60        Eu454   2.359       .  S
C61         C210   1.513   1_554  S
C61          C62   1.402       .  A
C61          C66   1.408       .  A
C62          C63   1.405       .  A
C62          H67   1.083       .  S
C63          C64   1.424       .  A
C63          O68   1.371       .  S
C64          C65   1.410       .  A
C65          C66   1.414       .  A
C65          H69   1.083       .  S
C66          O70   1.370       .  S
O68          H72   0.992       .  S
O70          H71   0.992       .  S
C73          C74   1.399       .  A
C73          C78   1.406       .  A
C74          C75   1.401       .  A
C74          H79   1.083       .  S
C75          C76   1.411       .  A
C75          O80   1.372       .  S
C76         C209   1.467   1_554  S
C76          C77   1.393       .  A
C77          C78   1.382       .  A
C77          H81   1.083       .  S
C78          O82   1.369       .  S
O80         H288   0.990       .  S
O82          H83   0.992       .  S
H84         O284   0.990       .  S
C85          C86   1.397       .  A
C85          C90   1.400       .  A
C86          C87   1.391       .  A
C86          H91   1.085       .  S
C87          C88   1.410       .  A
C87          O92   1.368       .  S
C88          C89   1.405       .  A
C89          C90   1.393       .  A
C89          H93   1.078       .  S
C90          O94   1.372       .  S
O92          H96   0.991       .  S
O94          H95   0.992       .  S
C97          C98   1.414       .  A
C97         C102   1.411       .  A
C98          C99   1.397       .  A
C98         H103   1.083       .  S
C99         C100   1.402       .  A
C99         O104   1.372       .  S
C100        C101   1.414       .  A
C101        C102   1.420       .  A
C101        H105   1.083       .  S
C102        O106   1.369       .  S
O104        H108   0.990       .  S
O106        H107   0.992       .  S
C109        C208   1.487   1_554  S
C109        C110   1.404       .  A
C109        C522   1.402       .  A
C110        C111   1.400       .  A
C110        H115   1.075   1_554  S
C111        C520   1.404       .  A
C111        O116   1.373       .  S
C112        C113   1.402       .  A
C112        C519   1.404   1_545  A
C113        C114   1.400       .  A
C113        H117   1.082       .  S
C114        C517   1.402       .  A
C114        O118   1.367       .  S
O116        H324   0.991       .  S
O118        H119   0.992   1_554  S
H120        O320   0.991       .  S
C121        C207   1.495       .  S
C121        C122   1.407       .  A
C121        C534   1.411       .  A
C122        C123   1.404       .  A
C122        H127   1.082       .  S
C123        C532   1.406       .  A
C123        O128   1.371       .  S
C124        C125   1.402       .  A
C124        C531   1.406   1_545  A
C125        C126   1.409       .  A
C125        H129   1.080       .  S
C126        C529   1.411       .  A
C126        O130   1.374       .  S
O128        H132   0.991       .  S
O130        H131   0.992       .  S
C133        C134   1.403       .  A
C133        C546   1.411       .  A
C134        C135   1.400       .  A
C134        H139   1.083       .  S
C135        C544   1.407       .  A
C135        O140   1.371       .  S
C136        C137   1.402       .  A
C136        C543   1.407   1_545  A
C137        C138   1.403       .  A
C137        H141   1.084       .  S
C138        C541   1.411       .  A
C138        O142   1.372       .  S
O140        H144   0.992       .  S
O142        H143   0.991       .  S
C145        C150   1.405       .  A
C145        C554   1.405       .  A
C146        C147   1.400       .  A
C146        C553   1.405       .  A
C146        H151   1.080       .  S
C147        C556   1.406   1_545  A
C147        O152   1.372       .  S
C148        C429   1.459       .  S
C148        C149   1.406       .  A
C148        C555   1.406       .  A
C149        C150   1.399       .  A
C149        H153   1.082       .  S
C150        O358   1.371       .  S
O152        H156   0.991       .  S
O154        C354   1.371       .  S
O154        H155   0.989   1_556  S
C157        C205   1.475   1_554  S
C157        C162   1.411       .  A
C157        C974   1.397       .  A
C158        C159   1.384       .  A
C158        C973   1.397   1_455  A
C158        H163   1.078       .  S
C159        C976   1.406   1_455  A
C159        O164   1.372       .  S
C160        C161   1.400       .  A
C160        C975   1.406       .  A
C161        C162   1.395       .  A
C161        H165   1.084       .  S
C162        O166   1.372       .  S
O164        H168   0.991       .  S
O166        H167   0.990       .  S
C169        C174   1.411       .  A
C169        C986   1.416       .  A
C170        C171   1.408       .  A
C170        C985   1.416   1_455  A
C170        H175   1.083       .  S
C171        C988   1.406   1_455  A
C171        O176   1.371       .  S
C172        C818   1.511       .  S
C172        C173   1.404       .  A
C172        C987   1.406       .  A
C173        C174   1.408       .  A
C173        H177   1.078       .  S
C174        O178   1.370       .  S
O176        H180   0.992       .  S
O178        H179   0.992       .  S
C181        C817   1.512   1_455  S
C181        C182   1.415       .  A
C181       C1002   1.405   1_455  A
C182        C183   1.420       .  A
C182        H187   1.083       .  S
C183        C184   1.411       .  A
C183        O188   1.370       .  S
C184       C1001   1.411   1_455  A
C185        C186   1.400       .  A
C185       C1000   1.411       .  A
C185        H189   1.081       .  S
C186        C997   1.405       .  A
C186        O190   1.374       .  S
O188        H192   0.991       .  S
O190        H191   0.992       .  S
C193        C194   1.396       .  A
C193       C1014   1.400   1_455  A
C194        C195   1.394       .  A
C194        H199   1.084       .  S
C195        C196   1.413   1_455  A
C195        O200   1.369       .  S
C196        C206   1.489       .  S
C196       C1013   1.404       .  A
C197        C198   1.393       .  A
C197       C1012   1.404       .  A
C197        H201   1.076       .  S
C198       C1009   1.400       .  A
C198        O202   1.372       .  S
O200        H408   0.992       .  S
O202        H203   0.992       .  S
H204        O404   0.992       .  S
C205        C818   1.373   1_556  D
C205       C1201   1.512       .  S
C206        C817   1.373       .  D
C206       C1192   1.511       .  S
C207        C208   1.369   1_554  D
C207        C349   1.486   1_554  S
C208        C337   1.490       .  S
C209        C210   1.367       .  D
C209        C304   1.509       .  S
C210        C292   1.486       .  S
O211        C222   1.291       .  A
O211       Eu247   2.461       .  S
O212        C223   1.289       .  A
O212       Eu246   2.452       .  S
O213        C224   1.289       .  A
O213       Eu219   2.445       .  S
O214        C225   1.300       .  A
O214      Eu1035   2.521   1_465  S
O215        C225   1.278   1_545  A
O215       Eu249   2.364       .  S
O216        C224   1.296       .  A
O216       Eu248   2.486       .  S
O217        C223   1.283       .  A
O217       Eu627   2.411       .  S
O218       C1038   1.283       .  A
O218       Eu219   2.414       .  S
Eu219      O1030   2.521   1_545  S
Eu219       O625   2.411   1_545  S
Eu219      O1045   2.319       .  S
Eu219       O221   2.371       .  S
Eu219       O628   2.317   1_545  S
Eu219       O635   2.370   1_545  S
O220       Eu627   2.317       .  S
O220      Eu1473   2.345       .  S
O220       Eu246   2.327       .  S
O221      Eu1063   2.355       .  S
O221       Eu248   2.359       .  S
C222       O1034   1.283   1_455  A
C222        C397   1.453       .  S
C223        C289   1.450       .  S
C224        C340   1.473       .  S
C225        C760   1.459       .  S
H226        O227   0.966       .  S
O227       Eu627   2.370       .  S
O227       Eu656   2.362       .  S
O227       Eu246   2.354       .  S
H228        O229   0.963       .  S
O229      Eu1035   2.319   1_455  S
O229       Eu247   2.342       .  S
O229       Eu249   2.362       .  S
O230        C253   1.287       .  A
O230       Eu246   2.438       .  S
O231        C254   1.289       .  A
O231       Eu247   2.455       .  S
O232        C255   1.303       .  A
O232       Eu656   2.528       .  S
O233        C256   1.306       .  A
O233       Eu657   2.556       .  S
O234        C257   1.308       .  A
O234       Eu249   2.563       .  S
O235        C258   1.303       .  A
O235       Eu248   2.524       .  S
O236        C259   1.297       .  A
O236      Eu1066   2.500       .  S
O237        C260   1.292       .  A
O237       Eu250   2.463       .  S
O238        C259   1.282       .  A
O238       Eu248   2.392       .  S
O239        C260   1.296       .  A
O239       Eu249   2.492       .  S
O240        C255   1.287       .  A
O240       Eu246   2.439       .  S
O241       C1074   1.289   1_455  A
O241       Eu247   2.443       .  S
O242        C257   1.286       .  A
O242       Eu247   2.424       .  S
O243       C1072   1.287       .  A
O243       Eu246   2.424       .  S
O244       C1069   1.284   1_455  A
O244       Eu658   2.415       .  S
O245        C254   1.285       .  A
O245       Eu250   2.412       .  S
Eu246      O1080   2.367       .  S
Eu246       O252   2.322       .  S
Eu247      O1037   2.355   1_455  S
Eu247       O251   2.367       .  S
Eu247       O262   2.327   1_455  S
Eu248       O640   2.528   1_545  S
Eu248       O635   2.362   1_545  S
Eu248      O1078   2.354       .  S
Eu248       O660   2.348   1_545  S
Eu249       O641   2.556   1_545  S
Eu249      O1444   2.345   1_545  S
Eu249       O251   2.360       .  S
Eu249       O672   2.369   1_545  S
Eu250      O1052   2.500   1_455  S
Eu250       O652   2.415   1_545  S
Eu250       O251   2.362       .  S
Eu250       O262   2.325   1_455  S
Eu250       O672   2.359   1_545  S
Eu250      O1476   2.333   1_445  S
O252       Eu656   2.348       .  S
O252      Eu1474   2.333       .  S
C253       O1060   1.284       .  A
C253        C364   1.457       .  S
C254        C277   1.457       .  S
C255        C268   1.512       .  S
C256       O1059   1.287   1_455  A
C256        C388   1.506       .  S
C257        C301   1.508       .  S
C258       O1057   1.289       .  A
C258        C373   1.506       .  S
C259        C316   1.458       .  S
C260        C328   1.482       .  S
H261        O262   0.963       .  S
O262      Eu1064   2.354       .  S
H263        O264   0.966       .  S
O264      Eu1062   2.367   1_455  S
O264       Eu657   2.369       .  S
O264       Eu658   2.359       .  S
C265        C266   1.402       .  A
C265        C270   1.408       .  A
C266        C267   1.405       .  A
C266        H271   1.083       .  S
C267        C268   1.424       .  A
C267        O272   1.371       .  S
C268        C269   1.410       .  A
C269        C270   1.414       .  A
C269        H273   1.083       .  S
C270        O274   1.370       .  S
O272        H276   0.992       .  S
O274        H275   0.992       .  S
C277        C278   1.399       .  A
C277        C282   1.406       .  A
C278        C279   1.401       .  A
C278        H283   1.083       .  S
C279        C280   1.411       .  A
C279        O284   1.372       .  S
C280        C281   1.393       .  A
C281        C282   1.382       .  A
C281        H285   1.083       .  S
C282        O286   1.369       .  S
O286        H287   0.992       .  S
C289        C290   1.397       .  A
C289        C294   1.400       .  A
C290        C291   1.391       .  A
C290        H295   1.085       .  S
C291        C292   1.410       .  A
C291        O296   1.368   1_556  S
C292        C293   1.405       .  A
C293        C294   1.393       .  A
C293        H297   1.078       .  S
C294        O298   1.372       .  S
O296        H300   0.991       .  S
O298        H299   0.992       .  S
C301        C302   1.414       .  A
C301        C306   1.411       .  A
C302        C303   1.397       .  A
C302        H307   1.083       .  S
C303        C304   1.402       .  A
C303        O308   1.372       .  S
C304        C305   1.414       .  A
C305        C306   1.420       .  A
C305        H309   1.083       .  S
C306        O310   1.369       .  S
O308        H312   0.990       .  S
O310        H311   0.992       .  S
C313        C314   1.404       .  A
C313        C726   1.402       .  A
C314        C315   1.400       .  A
C314        H319   1.075       .  S
C315        C724   1.404       .  A
C315        O320   1.373       .  S
C316        C723   1.404   1_545  A
C316        C317   1.402       .  A
C317        C318   1.400       .  A
C317        H321   1.082       .  S
C318        C721   1.402       .  A
C318        O322   1.367       .  S
O322        H323   0.992       .  S
C325        C326   1.407       .  A
C325        C738   1.411       .  A
C326        C327   1.404       .  A
C326        H331   1.082       .  S
C327        C736   1.406       .  A
C327        O332   1.371       .  S
C328        C735   1.406   1_545  A
C328        C329   1.402       .  A
C329        C330   1.409       .  A
C329        H333   1.080       .  S
C330        C733   1.411       .  A
C330        O334   1.374       .  S
O332        H336   0.991       .  S
O334        H335   0.992       .  S
C337        C338   1.403       .  A
C337        C750   1.411       .  A
C338        C339   1.400       .  A
C338        H343   1.083       .  S
C339        C748   1.407       .  A
C339        O344   1.371       .  S
C340        C747   1.407   1_545  A
C340        C341   1.402       .  A
C341        C342   1.403       .  A
C341        H345   1.084       .  S
C342        C745   1.411       .  A
C342        O346   1.372       .  S
O344        H348   0.992       .  S
O346        H347   0.991       .  S
C349        C758   1.405       .  A
C349        C354   1.405       .  A
C350        C757   1.405       .  A
C350        C351   1.400       .  A
C350        H355   1.080   1_556  S
C351        C760   1.406   1_545  A
C351        O356   1.372       .  S
C352        C633   1.459       .  S
C352        C759   1.406       .  A
C352        C353   1.406       .  A
C353        C354   1.399       .  A
C353        H357   1.082       .  S
O356        H360   0.991       .  S
O358        H359   0.989       .  S
C361       C1178   1.397       .  A
C361        C366   1.411       .  A
C362       C1177   1.397   1_455  A
C362        C363   1.384       .  A
C362        H367   1.078       .  S
C363       C1180   1.406   1_455  A
C363        O368   1.372       .  S
C364       C1179   1.406       .  A
C364        C365   1.400       .  A
C365        C366   1.395       .  A
C365        H369   1.084       .  S
C366        O370   1.372       .  S
O368        H372   0.991       .  S
O370        H371   0.990       .  S
C373       C1190   1.416       .  A
C373        C378   1.411       .  A
C374       C1189   1.416   1_455  A
C374        C375   1.408       .  A
C374        H379   1.083       .  S
C375       C1192   1.406   1_455  A
C375        O380   1.371       .  S
C376       C1022   1.511       .  S
C376       C1191   1.406       .  A
C376        C377   1.404       .  A
C377        C378   1.408       .  A
C377        H381   1.078       .  S
C378        O382   1.370       .  S
O380        H384   0.992       .  S
O382        H383   0.992       .  S
C385       C1021   1.512   1_455  S
C385        C386   1.415       .  A
C385       C1206   1.405   1_455  A
C386        C387   1.420       .  A
C386        H391   1.083       .  S
C387        C388   1.411       .  A
C387        O392   1.370       .  S
C388       C1205   1.411   1_455  A
C389       C1204   1.411       .  A
C389        C390   1.400       .  A
C389        H393   1.081       .  S
C390       C1201   1.405       .  A
C390        O394   1.374       .  S
O392        H396   0.991       .  S
O394        H395   0.992       .  S
C397        C398   1.396       .  A
C397       C1218   1.400   1_455  A
C398        C399   1.394       .  A
C398        H403   1.084       .  S
C399        C400   1.413   1_455  A
C399        O404   1.369   1_556  S
C400       C1217   1.404       .  A
C401       C1216   1.404       .  A
C401        C402   1.393       .  A
C401        H405   1.076       .  S
C402       C1213   1.400       .  A
C402        O406   1.372       .  S
O406        H407   0.992       .  S
C409       C1430   1.373       .  D
C409        C769   1.475       .  S
C409       C1405   1.512       .  S
C410       C1429   1.373   1_554  D
C410       C1396   1.511       .  S
C410        C808   1.489   1_554  S
C411        C412   1.369       .  D
C411        C733   1.495       .  S
C411        C553   1.486       .  S
C412        C721   1.487       .  S
C412        C541   1.490       .  S
C413        C414   1.367       .  D
C413        C688   1.467       .  S
C413        C508   1.509       .  S
C414        C673   1.513       .  S
C414        C496   1.486       .  S
O415        C426   1.291       .  A
O415       Eu451   2.461       .  S
O416        C427   1.289       .  A
O416       Eu450   2.452       .  S
O417        C428   1.289       .  A
O417       Eu423   2.445       .  S
O418        C429   1.300       .  A
O418      Eu1239   2.521   1_455  S
O419        C429   1.278       .  A
O419       Eu453   2.364       .  S
O420        C428   1.296       .  A
O420       Eu452   2.486       .  S
O421        C427   1.283       .  A
O422       C1242   1.283       .  A
O422       Eu423   2.414       .  S
Eu423      O1234   2.521       .  S
Eu423      O1249   2.319       .  S
Eu423       O425   2.371       .  S
O424       Eu861   2.345   1_565  S
O424       Eu450   2.327       .  S
O425      Eu1267   2.355       .  S
O425       Eu452   2.359       .  S
C426       O1238   1.283   1_455  A
C426        C601   1.453       .  S
C427        C493   1.450       .  S
C428        C544   1.473       .  S
H430        O431   0.966       .  S
O431       Eu450   2.354       .  S
H432        O433   0.963       .  S
O433      Eu1239   2.319   1_455  S
O433       Eu451   2.342       .  S
O433       Eu453   2.362       .  S
O434        C457   1.287       .  A
O434       Eu450   2.438       .  S
O435        C458   1.289       .  A
O435       Eu451   2.455       .  S
O436        C459   1.303       .  A
O437        C460   1.306       .  A
O438        C461   1.308       .  A
O438       Eu453   2.563       .  S
O439        C462   1.303       .  A
O439       Eu452   2.524       .  S
O440        C463   1.297       .  A
O440      Eu1270   2.500       .  S
O441        C464   1.292       .  A
O441       Eu454   2.463       .  S
O442        C463   1.282       .  A
O442       Eu452   2.392       .  S
O443        C464   1.296       .  A
O443       Eu453   2.492       .  S
O444        C459   1.287       .  A
O444       Eu450   2.439       .  S
O445       C1278   1.289   1_455  A
O445       Eu451   2.443       .  S
O446        C461   1.286       .  A
O446       Eu451   2.424       .  S
O447       C1276   1.287       .  A
O447       Eu450   2.424       .  S
O448       C1273   1.284   1_455  A
O449        C458   1.285       .  A
O449       Eu454   2.412       .  S
Eu450      O1284   2.367       .  S
Eu450       O456   2.322       .  S
Eu451      O1241   2.355   1_455  S
Eu451       O455   2.367       .  S
Eu451       O466   2.327   1_455  S
Eu452      O1282   2.354       .  S
Eu453       O832   2.345       .  S
Eu453       O455   2.360       .  S
Eu454      O1256   2.500   1_455  S
Eu454       O455   2.362       .  S
Eu454       O466   2.325   1_455  S
Eu454       O864   2.333   1_455  S
O456       Eu862   2.333   1_565  S
C457       O1264   1.284       .  A
C457        C568   1.457       .  S
C458        C481   1.457       .  S
C459        C472   1.512       .  S
C460       O1263   1.287   1_455  A
C460        C592   1.506       .  S
C461        C505   1.508       .  S
C462       O1261   1.289       .  A
C462        C577   1.506       .  S
C463        C520   1.458       .  S
C464        C532   1.482       .  S
H465        O466   0.963       .  S
O466      Eu1268   2.354       .  S
H467        O468   0.966       .  S
O468      Eu1266   2.367   1_455  S
C469        C618   1.513   1_554  S
C469        C470   1.402       .  A
C469        C474   1.408       .  A
C470        C471   1.405       .  A
C470        H475   1.083       .  S
C471        C472   1.424       .  A
C471        O476   1.371       .  S
C472        C473   1.410       .  A
C473        C474   1.414       .  A
C473        H477   1.083       .  S
C474        O478   1.370       .  S
O476        H480   0.992       .  S
O478        H479   0.992       .  S
C481        C482   1.399       .  A
C481        C486   1.406       .  A
C482        C483   1.401       .  A
C482        H487   1.083       .  S
C483        C484   1.411       .  A
C483        O488   1.372       .  S
C484        C617   1.467   1_554  S
C484        C485   1.393       .  A
C485        C486   1.382       .  A
C485        H489   1.083       .  S
C486        O490   1.369       .  S
O488        H696   0.990       .  S
O490        H491   0.992       .  S
H492        O692   0.990       .  S
C493        C494   1.397       .  A
C493        C498   1.400       .  A
C494        C495   1.391       .  A
C494        H499   1.085       .  S
C495        C496   1.410       .  A
C495        O500   1.368       .  S
C496        C497   1.405       .  A
C497        C498   1.393       .  A
C497        H501   1.078       .  S
C498        O502   1.372       .  S
O500        H504   0.991       .  S
O502        H503   0.992       .  S
C505        C506   1.414       .  A
C505        C510   1.411       .  A
C506        C507   1.397       .  A
C506        H511   1.083       .  S
C507        C508   1.402       .  A
C507        O512   1.372       .  S
C508        C509   1.414       .  A
C509        C510   1.420       .  A
C509        H513   1.083       .  S
C510        O514   1.369       .  S
O512        H516   0.990       .  S
O514        H515   0.992       .  S
C517        C616   1.487   1_554  S
C517        C518   1.404   1_545  A
C518        C519   1.400       .  A
C518        H523   1.075   1_554  S
C519        O524   1.373       .  S
C520        C521   1.402       .  A
C521        C522   1.400       .  A
C521        H525   1.082       .  S
C522        O526   1.367       .  S
O524        H732   0.991       .  S
O526        H527   0.992   1_554  S
H528        O728   0.991       .  S
C529        C615   1.495       .  S
C529        C530   1.407   1_545  A
C530        C531   1.404       .  A
C530        H535   1.082       .  S
C531        O536   1.371       .  S
C532        C533   1.402       .  A
C533        C534   1.409       .  A
C533        H537   1.080       .  S
C534        O538   1.374       .  S
O536        H540   0.991       .  S
O538        H539   0.992       .  S
C541        C542   1.403   1_545  A
C542        C543   1.400       .  A
C542        H547   1.083       .  S
C543        O548   1.371       .  S
C544        C545   1.402       .  A
C545        C546   1.403       .  A
C545        H549   1.084       .  S
C546        O550   1.372       .  S
O548        H552   0.992       .  S
O550        H551   0.991       .  S
C553        C558   1.405   1_545  A
C554        C555   1.400       .  A
C554        H559   1.080       .  S
C555        O560   1.372       .  S
C556        C557   1.406       .  A
C557        C558   1.399       .  A
C557        H561   1.082       .  S
C558        O766   1.371       .  S
O560        H564   0.991       .  S
O562        C762   1.371       .  S
O562        H563   0.989   1_556  S
C565        C613   1.475   1_554  S
C565       C1382   1.397       .  A
C565        C570   1.411       .  A
C566       C1381   1.397   1_455  A
C566        C567   1.384       .  A
C566        H571   1.078       .  S
C567       C1384   1.406   1_455  A
C567        O572   1.372       .  S
C568       C1383   1.406       .  A
C568        C569   1.400       .  A
C569        C570   1.395       .  A
C569        H573   1.084       .  S
C570        O574   1.372       .  S
O572        H576   0.991       .  S
O574        H575   0.990       .  S
C577       C1394   1.416       .  A
C577        C582   1.411       .  A
C578       C1393   1.416   1_455  A
C578        C579   1.408       .  A
C578        H583   1.083       .  S
C579       C1396   1.406   1_455  A
C579        O584   1.371       .  S
C580       C1226   1.511       .  S
C580       C1395   1.406       .  A
C580        C581   1.404       .  A
C581        C582   1.408       .  A
C581        H585   1.078       .  S
C582        O586   1.370       .  S
O584        H588   0.992       .  S
O586        H587   0.992       .  S
C589       C1225   1.512   1_455  S
C589        C590   1.415       .  A
C589       C1410   1.405   1_455  A
C590        C591   1.420       .  A
C590        H595   1.083       .  S
C591        C592   1.411       .  A
C591        O596   1.370       .  S
C592       C1409   1.411   1_455  A
C593       C1408   1.411       .  A
C593        C594   1.400       .  A
C593        H597   1.081       .  S
C594       C1405   1.405       .  A
C594        O598   1.374       .  S
O596        H600   0.991       .  S
O598        H599   0.992       .  S
C601        C602   1.396       .  A
C601       C1422   1.400   1_455  A
C602        C603   1.394       .  A
C602        H607   1.084       .  S
C603        C604   1.413   1_455  A
C603        O608   1.369       .  S
C604        C614   1.489       .  S
C604       C1421   1.404       .  A
C605       C1420   1.404       .  A
C605        C606   1.393       .  A
C605        H609   1.076       .  S
C606       C1417   1.400       .  A
C606        O610   1.372       .  S
O608        H816   0.992       .  S
O610        H611   0.992       .  S
H612        O812   0.992       .  S
C613       C1226   1.373   1_556  D
C613       C1609   1.512       .  S
C614       C1225   1.373       .  D
C614       C1600   1.511       .  S
C615        C616   1.369   1_554  D
C615        C757   1.486   1_554  S
C616        C745   1.490       .  S
C617        C618   1.367       .  D
C617        C712   1.509       .  S
C618        C700   1.486       .  S
O619        C630   1.291       .  A
O619       Eu655   2.461       .  S
O620        C631   1.289       .  A
O620       Eu654   2.452       .  S
O621        C632   1.289       .  A
O621       Eu627   2.445       .  S
O622        C633   1.300       .  A
O622      Eu1443   2.521   1_455  S
O623        C633   1.278       .  A
O623       Eu657   2.364       .  S
O624        C632   1.296       .  A
O624       Eu656   2.486       .  S
O625        C631   1.283       .  A
O626       C1446   1.283       .  A
O626       Eu627   2.414       .  S
Eu627      O1438   2.521       .  S
Eu627      O1453   2.319       .  S
Eu627       O629   2.371       .  S
O628      Eu1065   2.345   1_565  S
O628       Eu654   2.327       .  S
O629      Eu1471   2.355       .  S
O629       Eu656   2.359       .  S
C630       O1442   1.283   1_455  A
C630        C805   1.453       .  S
C631        C697   1.450       .  S
C632        C748   1.473       .  S
H634        O635   0.966       .  S
O635       Eu654   2.354       .  S
H636        O637   0.963       .  S
O637      Eu1443   2.319   1_455  S
O637       Eu655   2.342       .  S
O637       Eu657   2.362       .  S
O638        C661   1.287       .  A
O638       Eu654   2.438       .  S
O639        C662   1.289       .  A
O639       Eu655   2.455       .  S
O640        C663   1.303       .  A
O641        C664   1.306       .  A
O642        C665   1.308       .  A
O642       Eu657   2.563       .  S
O643        C666   1.303       .  A
O643       Eu656   2.524       .  S
O644        C667   1.297       .  A
O644      Eu1474   2.500       .  S
O645        C668   1.292       .  A
O645       Eu658   2.463       .  S
O646        C667   1.282       .  A
O646       Eu656   2.392       .  S
O647        C668   1.296       .  A
O647       Eu657   2.492       .  S
O648        C663   1.287       .  A
O648       Eu654   2.439       .  S
O649       C1482   1.289   1_455  A
O649       Eu655   2.443       .  S
O650        C665   1.286       .  A
O650       Eu655   2.424       .  S
O651       C1480   1.287       .  A
O651       Eu654   2.424       .  S
O652       C1477   1.284   1_455  A
O653        C662   1.285       .  A
O653       Eu658   2.412       .  S
Eu654      O1488   2.367       .  S
Eu654       O660   2.322       .  S
Eu655      O1445   2.355   1_455  S
Eu655       O659   2.367       .  S
Eu655       O670   2.327   1_455  S
Eu656      O1486   2.354       .  S
Eu657      O1036   2.345       .  S
Eu657       O659   2.360       .  S
Eu658      O1460   2.500   1_455  S
Eu658       O659   2.362       .  S
Eu658       O670   2.325   1_455  S
Eu658      O1068   2.333   1_455  S
O660      Eu1066   2.333   1_565  S
C661       O1468   1.284       .  A
C661        C772   1.457       .  S
C662        C685   1.457       .  S
C663        C676   1.512       .  S
C664       O1467   1.287   1_455  A
C664        C796   1.506       .  S
C665        C709   1.508       .  S
C666       O1465   1.289       .  A
C666        C781   1.506       .  S
C667        C724   1.458       .  S
C668        C736   1.482       .  S
H669        O670   0.963       .  S
O670      Eu1472   2.354       .  S
H671        O672   0.966       .  S
O672      Eu1470   2.367   1_455  S
C673        C674   1.402       .  A
C673        C678   1.408       .  A
C674        C675   1.405       .  A
C674        H679   1.083       .  S
C675        C676   1.424       .  A
C675        O680   1.371       .  S
C676        C677   1.410       .  A
C677        C678   1.414       .  A
C677        H681   1.083       .  S
C678        O682   1.370       .  S
O680        H684   0.992       .  S
O682        H683   0.992       .  S
C685        C686   1.399       .  A
C685        C690   1.406       .  A
C686        C687   1.401       .  A
C686        H691   1.083       .  S
C687        C688   1.411       .  A
C687        O692   1.372       .  S
C688        C689   1.393       .  A
C689        C690   1.382       .  A
C689        H693   1.083       .  S
C690        O694   1.369       .  S
O694        H695   0.992       .  S
C697        C698   1.397       .  A
C697        C702   1.400       .  A
C698        C699   1.391       .  A
C698        H703   1.085       .  S
C699        C700   1.410       .  A
C699        O704   1.368   1_556  S
C700        C701   1.405       .  A
C701        C702   1.393       .  A
C701        H705   1.078       .  S
C702        O706   1.372       .  S
O704        H708   0.991       .  S
O706        H707   0.992       .  S
C709        C710   1.414       .  A
C709        C714   1.411       .  A
C710        C711   1.397       .  A
C710        H715   1.083       .  S
C711        C712   1.402       .  A
C711        O716   1.372       .  S
C712        C713   1.414       .  A
C713        C714   1.420       .  A
C713        H717   1.083       .  S
C714        O718   1.369       .  S
O716        H720   0.990       .  S
O718        H719   0.992       .  S
C721        C722   1.404   1_545  A
C722        C723   1.400       .  A
C722        H727   1.075       .  S
C723        O728   1.373       .  S
C724        C725   1.402       .  A
C725        C726   1.400       .  A
C725        H729   1.082       .  S
C726        O730   1.367       .  S
O730        H731   0.992       .  S
C733        C734   1.407   1_545  A
C734        C735   1.404       .  A
C734        H739   1.082       .  S
C735        O740   1.371       .  S
C736        C737   1.402       .  A
C737        C738   1.409       .  A
C737        H741   1.080       .  S
C738        O742   1.374       .  S
O740        H744   0.991       .  S
O742        H743   0.992       .  S
C745        C746   1.403   1_545  A
C746        C747   1.400       .  A
C746        H751   1.083       .  S
C747        O752   1.371       .  S
C748        C749   1.402       .  A
C749        C750   1.403       .  A
C749        H753   1.084       .  S
C750        O754   1.372       .  S
O752        H756   0.992       .  S
O754        H755   0.991       .  S
C757        C762   1.405   1_545  A
C758        C759   1.400       .  A
C758        H763   1.080   1_556  S
C759        O764   1.372       .  S
C760        C761   1.406       .  A
C761        C762   1.399       .  A
C761        H765   1.082       .  S
O764        H768   0.991       .  S
O766        H767   0.989       .  S
C769       C1586   1.397       .  A
C769        C774   1.411       .  A
C770       C1585   1.397   1_455  A
C770        C771   1.384       .  A
C770        H775   1.078       .  S
C771       C1588   1.406   1_455  A
C771        O776   1.372       .  S
C772       C1587   1.406       .  A
C772        C773   1.400       .  A
C773        C774   1.395       .  A
C773        H777   1.084       .  S
C774        O778   1.372       .  S
O776        H780   0.991       .  S
O778        H779   0.990       .  S
C781       C1598   1.416       .  A
C781        C786   1.411       .  A
C782       C1597   1.416   1_455  A
C782        C783   1.408       .  A
C782        H787   1.083       .  S
C783       C1600   1.406   1_455  A
C783        O788   1.371       .  S
C784       C1430   1.511       .  S
C784       C1599   1.406       .  A
C784        C785   1.404       .  A
C785        C786   1.408       .  A
C785        H789   1.078       .  S
C786        O790   1.370       .  S
O788        H792   0.992       .  S
O790        H791   0.992       .  S
C793       C1429   1.512   1_455  S
C793        C794   1.415       .  A
C793       C1614   1.405   1_455  A
C794        C795   1.420       .  A
C794        H799   1.083       .  S
C795        C796   1.411       .  A
C795        O800   1.370       .  S
C796       C1613   1.411   1_455  A
C797       C1612   1.411       .  A
C797        C798   1.400       .  A
C797        H801   1.081       .  S
C798       C1609   1.405       .  A
C798        O802   1.374       .  S
O800        H804   0.991       .  S
O802        H803   0.992       .  S
C805        C806   1.396       .  A
C805       C1626   1.400   1_455  A
C806        C807   1.394       .  A
C806        H811   1.084       .  S
C807        C808   1.413   1_455  A
C807        O812   1.369   1_556  S
C808       C1625   1.404       .  A
C809       C1624   1.404       .  A
C809        C810   1.393       .  A
C809        H813   1.076       .  S
C810       C1621   1.400       .  A
C810        O814   1.372       .  S
O814        H815   0.992       .  S
C817       C1177   1.475       .  S
C818       C1216   1.489   1_554  S
C819        C820   1.369       .  D
C819       C1141   1.495       .  S
C819        C961   1.486       .  S
C820       C1129   1.487       .  S
C820        C949   1.490       .  S
C821        C822   1.367       .  D
C821       C1096   1.467       .  S
C821        C916   1.509       .  S
C822       C1081   1.513       .  S
C822        C904   1.486       .  S
O823        C834   1.291       .  A
O823       Eu859   2.461       .  S
O824        C835   1.289       .  A
O824       Eu858   2.452       .  S
O825        C836   1.289       .  A
O825       Eu831   2.445       .  S
O826        C837   1.300       .  A
O827        C837   1.278   1_545  A
O827       Eu861   2.364       .  S
O828        C836   1.296       .  A
O828       Eu860   2.486       .  S
O829        C835   1.283       .  A
O829      Eu1239   2.411       .  S
O830       Eu831   2.414       .  S
Eu831      O1237   2.411   1_545  S
Eu831       O833   2.371       .  S
Eu831      O1240   2.317   1_645  S
Eu831      O1247   2.370   1_545  S
O832      Eu1239   2.317   1_455  S
O832       Eu858   2.327   1_455  S
O833       Eu860   2.359       .  S
C834       C1009   1.453       .  S
C835        C901   1.450       .  S
C836        C952   1.473       .  S
C837       C1372   1.459       .  S
H838        O839   0.966       .  S
O839      Eu1239   2.370       .  S
O839      Eu1268   2.362       .  S
O839       Eu858   2.354       .  S
H840        O841   0.963       .  S
O841       Eu859   2.342       .  S
O841       Eu861   2.362       .  S
O842        C865   1.287       .  A
O842       Eu858   2.438       .  S
O843        C866   1.289       .  A
O843       Eu859   2.455       .  S
O844        C867   1.303       .  A
O844      Eu1268   2.528       .  S
O845        C868   1.306       .  A
O845      Eu1269   2.556       .  S
O846        C869   1.308       .  A
O846       Eu861   2.563       .  S
O847        C870   1.303       .  A
O847       Eu860   2.524       .  S
O848        C871   1.297       .  A
O849        C872   1.292       .  A
O849       Eu862   2.463       .  S
O850        C871   1.282       .  A
O850       Eu860   2.392       .  S
O851        C872   1.296       .  A
O851       Eu861   2.492       .  S
O852        C867   1.287       .  A
O852       Eu858   2.439       .  S
O853       Eu859   2.443       .  S
O854        C869   1.286       .  A
O854       Eu859   2.424       .  S
O855       Eu858   2.424       .  S
O856      Eu1270   2.415       .  S
O857        C866   1.285       .  A
O857       Eu862   2.412       .  S
Eu858       O864   2.322       .  S
Eu859       O863   2.367       .  S
Eu859       O874   2.327       .  S
Eu860      O1252   2.528   1_545  S
Eu860      O1247   2.362   1_545  S
Eu860      O1272   2.348   1_545  S
Eu861      O1253   2.556   1_545  S
Eu861       O863   2.360       .  S
Eu861      O1284   2.369   1_545  S
Eu862      O1264   2.415   1_545  S
Eu862       O863   2.362       .  S
Eu862       O874   2.325       .  S
Eu862      O1284   2.359   1_545  S
O864      Eu1268   2.348       .  S
C865        C976   1.457       .  S
C866        C889   1.457       .  S
C867        C880   1.512       .  S
C868       C1000   1.506       .  S
C869        C913   1.508       .  S
C870        C985   1.506       .  S
C871        C928   1.458       .  S
C872        C940   1.482       .  S
H873        O874   0.963       .  S
H875        O876   0.966       .  S
O876      Eu1269   2.369       .  S
O876      Eu1270   2.359       .  S
C877       C1026   1.513   1_554  S
C877        C878   1.402       .  A
C877        C882   1.408       .  A
C878        C879   1.405       .  A
C878        H883   1.083       .  S
C879        C880   1.424       .  A
C879        O884   1.371       .  S
C880        C881   1.410       .  A
C881        C882   1.414       .  A
C881        H885   1.083       .  S
C882        O886   1.370       .  S
O884        H888   0.992       .  S
O886        H887   0.992       .  S
C889        C890   1.399       .  A
C889        C894   1.406       .  A
C890        C891   1.401       .  A
C890        H895   1.083       .  S
C891        C892   1.411       .  A
C891        O896   1.372       .  S
C892       C1025   1.467   1_554  S
C892        C893   1.393       .  A
C893        C894   1.382       .  A
C893        H897   1.083       .  S
C894        O898   1.369       .  S
O896       H1104   0.990       .  S
O898        H899   0.992       .  S
H900       O1100   0.990       .  S
C901        C902   1.397       .  A
C901        C906   1.400       .  A
C902        C903   1.391       .  A
C902        H907   1.085       .  S
C903        C904   1.410       .  A
C903        O908   1.368       .  S
C904        C905   1.405       .  A
C905        C906   1.393       .  A
C905        H909   1.078       .  S
C906        O910   1.372       .  S
O908        H912   0.991       .  S
O910        H911   0.992       .  S
C913        C914   1.414       .  A
C913        C918   1.411       .  A
C914        C915   1.397       .  A
C914        H919   1.083       .  S
C915        C916   1.402       .  A
C915        O920   1.372       .  S
C916        C917   1.414       .  A
C917        C918   1.420       .  A
C917        H921   1.083       .  S
C918        O922   1.369       .  S
O920        H924   0.990       .  S
O922        H923   0.992       .  S
C925       C1024   1.487   1_554  S
C925        C926   1.404       .  A
C925       C1338   1.402       .  A
C926        C927   1.400       .  A
C926        H931   1.075   1_554  S
C927       C1336   1.404       .  A
C927        O932   1.373       .  S
C928       C1335   1.404   1_545  A
C928        C929   1.402       .  A
C929        C930   1.400       .  A
C929        H933   1.082       .  S
C930       C1333   1.402       .  A
C930        O934   1.367       .  S
O932       H1140   0.991       .  S
O934        H935   0.992   1_554  S
H936       O1136   0.991       .  S
C937       C1023   1.495       .  S
C937        C938   1.407       .  A
C937       C1350   1.411       .  A
C938        C939   1.404       .  A
C938        H943   1.082       .  S
C939       C1348   1.406       .  A
C939        O944   1.371       .  S
C940       C1347   1.406   1_545  A
C940        C941   1.402       .  A
C941        C942   1.409       .  A
C941        H945   1.080       .  S
C942       C1345   1.411       .  A
C942        O946   1.374       .  S
O944        H948   0.991       .  S
O946        H947   0.992       .  S
C949        C950   1.403       .  A
C949       C1362   1.411       .  A
C950        C951   1.400       .  A
C950        H955   1.083       .  S
C951       C1360   1.407       .  A
C951        O956   1.371       .  S
C952       C1359   1.407   1_545  A
C952        C953   1.402       .  A
C953        C954   1.403       .  A
C953        H957   1.084       .  S
C954       C1357   1.411       .  A
C954        O958   1.372       .  S
O956        H960   0.992       .  S
O958        H959   0.991       .  S
C961       C1370   1.405       .  A
C961        C966   1.405       .  A
C962       C1369   1.405       .  A
C962        C963   1.400       .  A
C962        H967   1.080       .  S
C963       C1372   1.406   1_545  A
C963        O968   1.372       .  S
C964       C1245   1.459       .  S
C964       C1371   1.406       .  A
C964        C965   1.406       .  A
C965        C966   1.399       .  A
C965        H969   1.082       .  S
C966       O1174   1.371       .  S
O968        H972   0.991       .  S
O970       C1170   1.371       .  S
O970        H971   0.989   1_556  S
C973       C1021   1.475   1_554  S
C973        C978   1.411       .  A
C974        C975   1.384       .  A
C974        H979   1.078       .  S
C975        O980   1.372       .  S
C976        C977   1.400       .  A
C977        C978   1.395       .  A
C977        H981   1.084       .  S
C978        O982   1.372       .  S
O980        H984   0.991       .  S
O982        H983   0.990       .  S
C985        C990   1.411       .  A
C986        C987   1.408       .  A
C986        H991   1.083       .  S
C987        O992   1.371       .  S
C988        C989   1.404       .  A
C989        C990   1.408       .  A
C989        H993   1.078       .  S
C990        O994   1.370       .  S
O992        H996   0.992       .  S
O994        H995   0.992       .  S
C997        C998   1.415       .  A
C998        C999   1.420       .  A
C998       H1003   1.083       .  S
C999       C1000   1.411       .  A
C999       O1004   1.370       .  S
C1001      C1002   1.400       .  A
C1001      H1005   1.081       .  S
C1002      O1006   1.374       .  S
O1004      H1008   0.991       .  S
O1006      H1007   0.992       .  S
C1009      C1010   1.396       .  A
C1010      C1011   1.394       .  A
C1010      H1015   1.084       .  S
C1011      C1012   1.413       .  A
C1011      O1016   1.369       .  S
C1012      C1022   1.489       .  S
C1013      C1014   1.393       .  A
C1013      H1017   1.076       .  S
C1014      O1018   1.372       .  S
O1016      H1224   0.992       .  S
O1018      H1019   0.992       .  S
H1020      O1220   0.992       .  S
C1023      C1024   1.369   1_554  D
C1023      C1165   1.486   1_554  S
C1024      C1153   1.490       .  S
C1025      C1026   1.367       .  D
C1025      C1120   1.509       .  S
C1026      C1108   1.486       .  S
O1027      C1038   1.291       .  A
O1027     Eu1063   2.461       .  S
O1028      C1039   1.289       .  A
O1028     Eu1062   2.452       .  S
O1029      C1040   1.289       .  A
O1029     Eu1035   2.445       .  S
O1030      C1041   1.300       .  A
O1031      C1041   1.278   1_545  A
O1031     Eu1065   2.364       .  S
O1032      C1040   1.296       .  A
O1032     Eu1064   2.486       .  S
O1033      C1039   1.283       .  A
O1033     Eu1443   2.411       .  S
O1034     Eu1035   2.414       .  S
Eu1035     O1441   2.411   1_545  S
Eu1035     O1037   2.371       .  S
Eu1035     O1444   2.317   1_645  S
Eu1035     O1451   2.370   1_545  S
O1036     Eu1443   2.317   1_455  S
O1036     Eu1062   2.327   1_455  S
O1037     Eu1064   2.359       .  S
C1038      C1213   1.453       .  S
C1039      C1105   1.450       .  S
C1040      C1156   1.473       .  S
C1041      C1576   1.459       .  S
H1042      O1043   0.966       .  S
O1043     Eu1443   2.370       .  S
O1043     Eu1472   2.362       .  S
O1043     Eu1062   2.354       .  S
H1044      O1045   0.963       .  S
O1045     Eu1063   2.342       .  S
O1045     Eu1065   2.362       .  S
O1046      C1069   1.287       .  A
O1046     Eu1062   2.438       .  S
O1047      C1070   1.289       .  A
O1047     Eu1063   2.455       .  S
O1048      C1071   1.303       .  A
O1048     Eu1472   2.528       .  S
O1049      C1072   1.306       .  A
O1049     Eu1473   2.556       .  S
O1050      C1073   1.308       .  A
O1050     Eu1065   2.563       .  S
O1051      C1074   1.303       .  A
O1051     Eu1064   2.524       .  S
O1052      C1075   1.297       .  A
O1053      C1076   1.292       .  A
O1053     Eu1066   2.463       .  S
O1054      C1075   1.282       .  A
O1054     Eu1064   2.392       .  S
O1055      C1076   1.296       .  A
O1055     Eu1065   2.492       .  S
O1056      C1071   1.287       .  A
O1056     Eu1062   2.439       .  S
O1057     Eu1063   2.443       .  S
O1058      C1073   1.286       .  A
O1058     Eu1063   2.424       .  S
O1059     Eu1062   2.424       .  S
O1060     Eu1474   2.415       .  S
O1061      C1070   1.285       .  A
O1061     Eu1066   2.412       .  S
Eu1062     O1068   2.322       .  S
Eu1063     O1067   2.367       .  S
Eu1063     O1078   2.327       .  S
Eu1064     O1456   2.528   1_545  S
Eu1064     O1451   2.362   1_545  S
Eu1064     O1476   2.348   1_545  S
Eu1065     O1457   2.556   1_545  S
Eu1065     O1067   2.360       .  S
Eu1065     O1488   2.369   1_545  S
Eu1066     O1468   2.415   1_545  S
Eu1066     O1067   2.362       .  S
Eu1066     O1078   2.325       .  S
Eu1066     O1488   2.359   1_545  S
O1068     Eu1472   2.348       .  S
C1069      C1180   1.457       .  S
C1070      C1093   1.457       .  S
C1071      C1084   1.512       .  S
C1072      C1204   1.506       .  S
C1073      C1117   1.508       .  S
C1074      C1189   1.506       .  S
C1075      C1132   1.458       .  S
C1076      C1144   1.482       .  S
H1077      O1078   0.963       .  S
H1079      O1080   0.966       .  S
O1080     Eu1473   2.369       .  S
O1080     Eu1474   2.359       .  S
C1081      C1082   1.402       .  A
C1081      C1086   1.408       .  A
C1082      C1083   1.405       .  A
C1082      H1087   1.083       .  S
C1083      C1084   1.424       .  A
C1083      O1088   1.371       .  S
C1084      C1085   1.410       .  A
C1085      C1086   1.414       .  A
C1085      H1089   1.083       .  S
C1086      O1090   1.370       .  S
O1088      H1092   0.992       .  S
O1090      H1091   0.992       .  S
C1093      C1094   1.399       .  A
C1093      C1098   1.406       .  A
C1094      C1095   1.401       .  A
C1094      H1099   1.083       .  S
C1095      C1096   1.411       .  A
C1095      O1100   1.372       .  S
C1096      C1097   1.393       .  A
C1097      C1098   1.382       .  A
C1097      H1101   1.083       .  S
C1098      O1102   1.369       .  S
O1102      H1103   0.992       .  S
C1105      C1106   1.397       .  A
C1105      C1110   1.400       .  A
C1106      C1107   1.391       .  A
C1106      H1111   1.085       .  S
C1107      C1108   1.410       .  A
C1107      O1112   1.368   1_556  S
C1108      C1109   1.405       .  A
C1109      C1110   1.393       .  A
C1109      H1113   1.078       .  S
C1110      O1114   1.372       .  S
O1112      H1116   0.991       .  S
O1114      H1115   0.992       .  S
C1117      C1118   1.414       .  A
C1117      C1122   1.411       .  A
C1118      C1119   1.397       .  A
C1118      H1123   1.083       .  S
C1119      C1120   1.402       .  A
C1119      O1124   1.372       .  S
C1120      C1121   1.414       .  A
C1121      C1122   1.420       .  A
C1121      H1125   1.083       .  S
C1122      O1126   1.369       .  S
O1124      H1128   0.990       .  S
O1126      H1127   0.992       .  S
C1129      C1130   1.404       .  A
C1129      C1542   1.402       .  A
C1130      C1131   1.400       .  A
C1130      H1135   1.075       .  S
C1131      C1540   1.404       .  A
C1131      O1136   1.373       .  S
C1132      C1539   1.404   1_545  A
C1132      C1133   1.402       .  A
C1133      C1134   1.400       .  A
C1133      H1137   1.082       .  S
C1134      C1537   1.402       .  A
C1134      O1138   1.367       .  S
O1138      H1139   0.992       .  S
C1141      C1142   1.407       .  A
C1141      C1554   1.411       .  A
C1142      C1143   1.404       .  A
C1142      H1147   1.082       .  S
C1143      C1552   1.406       .  A
C1143      O1148   1.371       .  S
C1144      C1551   1.406   1_545  A
C1144      C1145   1.402       .  A
C1145      C1146   1.409       .  A
C1145      H1149   1.080       .  S
C1146      C1549   1.411       .  A
C1146      O1150   1.374       .  S
O1148      H1152   0.991       .  S
O1150      H1151   0.992       .  S
C1153      C1154   1.403       .  A
C1153      C1566   1.411       .  A
C1154      C1155   1.400       .  A
C1154      H1159   1.083       .  S
C1155      C1564   1.407       .  A
C1155      O1160   1.371       .  S
C1156      C1563   1.407   1_545  A
C1156      C1157   1.402       .  A
C1157      C1158   1.403       .  A
C1157      H1161   1.084       .  S
C1158      C1561   1.411       .  A
C1158      O1162   1.372       .  S
O1160      H1164   0.992       .  S
O1162      H1163   0.991       .  S
C1165      C1574   1.405       .  A
C1165      C1170   1.405       .  A
C1166      C1573   1.405       .  A
C1166      C1167   1.400       .  A
C1166      H1171   1.080   1_556  S
C1167      C1576   1.406   1_545  A
C1167      O1172   1.372       .  S
C1168      C1449   1.459       .  S
C1168      C1575   1.406       .  A
C1168      C1169   1.406       .  A
C1169      C1170   1.399       .  A
C1169      H1173   1.082       .  S
O1172      H1176   0.991       .  S
O1174      H1175   0.989       .  S
C1177      C1182   1.411       .  A
C1178      C1179   1.384       .  A
C1178      H1183   1.078       .  S
C1179      O1184   1.372       .  S
C1180      C1181   1.400       .  A
C1181      C1182   1.395       .  A
C1181      H1185   1.084       .  S
C1182      O1186   1.372       .  S
O1184      H1188   0.991       .  S
O1186      H1187   0.990       .  S
C1189      C1194   1.411       .  A
C1190      C1191   1.408       .  A
C1190      H1195   1.083       .  S
C1191      O1196   1.371       .  S
C1192      C1193   1.404       .  A
C1193      C1194   1.408       .  A
C1193      H1197   1.078       .  S
C1194      O1198   1.370       .  S
O1196      H1200   0.992       .  S
O1198      H1199   0.992       .  S
C1201      C1202   1.415       .  A
C1202      C1203   1.420       .  A
C1202      H1207   1.083       .  S
C1203      C1204   1.411       .  A
C1203      O1208   1.370       .  S
C1205      C1206   1.400       .  A
C1205      H1209   1.081       .  S
C1206      O1210   1.374       .  S
O1208      H1212   0.991       .  S
O1210      H1211   0.992       .  S
C1213      C1214   1.396       .  A
C1214      C1215   1.394       .  A
C1214      H1219   1.084       .  S
C1215      C1216   1.413       .  A
C1215      O1220   1.369   1_556  S
C1217      C1218   1.393       .  A
C1217      H1221   1.076       .  S
C1218      O1222   1.372       .  S
O1222      H1223   0.992       .  S
C1225      C1585   1.475       .  S
C1226      C1624   1.489   1_554  S
C1227      C1228   1.369       .  D
C1227      C1549   1.495       .  S
C1227      C1369   1.486       .  S
C1228      C1537   1.487       .  S
C1228      C1357   1.490       .  S
C1229      C1230   1.367       .  D
C1229      C1504   1.467       .  S
C1229      C1324   1.509       .  S
C1230      C1489   1.513       .  S
C1230      C1312   1.486       .  S
O1231      C1242   1.291       .  A
O1231     Eu1267   2.461       .  S
O1232      C1243   1.289       .  A
O1232     Eu1266   2.452       .  S
O1233      C1244   1.289       .  A
O1233     Eu1239   2.445       .  S
O1234      C1245   1.300       .  A
O1235      C1245   1.278       .  A
O1235     Eu1269   2.364       .  S
O1236      C1244   1.296       .  A
O1236     Eu1268   2.486       .  S
O1237      C1243   1.283       .  A
O1238     Eu1239   2.414       .  S
Eu1239     O1241   2.371       .  S
O1240     Eu1266   2.327   1_455  S
O1241     Eu1268   2.359       .  S
C1242      C1417   1.453       .  S
C1243      C1309   1.450       .  S
C1244      C1360   1.473       .  S
H1246      O1247   0.966       .  S
O1247     Eu1266   2.354       .  S
H1248      O1249   0.963       .  S
O1249     Eu1267   2.342       .  S
O1249     Eu1269   2.362       .  S
O1250      C1273   1.287       .  A
O1250     Eu1266   2.438       .  S
O1251      C1274   1.289       .  A
O1251     Eu1267   2.455       .  S
O1252      C1275   1.303       .  A
O1253      C1276   1.306       .  A
O1254      C1277   1.308       .  A
O1254     Eu1269   2.563       .  S
O1255      C1278   1.303       .  A
O1255     Eu1268   2.524       .  S
O1256      C1279   1.297       .  A
O1257      C1280   1.292       .  A
O1257     Eu1270   2.463       .  S
O1258      C1279   1.282       .  A
O1258     Eu1268   2.392       .  S
O1259      C1280   1.296       .  A
O1259     Eu1269   2.492       .  S
O1260      C1275   1.287       .  A
O1260     Eu1266   2.439       .  S
O1261     Eu1267   2.443       .  S
O1262      C1277   1.286       .  A
O1262     Eu1267   2.424       .  S
O1263     Eu1266   2.424       .  S
O1265      C1274   1.285       .  A
O1265     Eu1270   2.412       .  S
Eu1266     O1272   2.322       .  S
Eu1267     O1271   2.367       .  S
Eu1267     O1282   2.327       .  S
Eu1269     O1271   2.360       .  S
Eu1270     O1271   2.362       .  S
Eu1270     O1282   2.325       .  S
C1273      C1384   1.457       .  S
C1274      C1297   1.457       .  S
C1275      C1288   1.512       .  S
C1276      C1408   1.506       .  S
C1277      C1321   1.508       .  S
C1278      C1393   1.506       .  S
C1279      C1336   1.458       .  S
C1280      C1348   1.482       .  S
H1281      O1282   0.963       .  S
H1283      O1284   0.966       .  S
C1285      C1434   1.513   1_554  S
C1285      C1286   1.402       .  A
C1285      C1290   1.408       .  A
C1286      C1287   1.405       .  A
C1286      H1291   1.083       .  S
C1287      C1288   1.424       .  A
C1287      O1292   1.371       .  S
C1288      C1289   1.410       .  A
C1289      C1290   1.414       .  A
C1289      H1293   1.083       .  S
C1290      O1294   1.370       .  S
O1292      H1296   0.992       .  S
O1294      H1295   0.992       .  S
C1297      C1298   1.399       .  A
C1297      C1302   1.406       .  A
C1298      C1299   1.401       .  A
C1298      H1303   1.083       .  S
C1299      C1300   1.411       .  A
C1299      O1304   1.372       .  S
C1300      C1433   1.467   1_554  S
C1300      C1301   1.393       .  A
C1301      C1302   1.382       .  A
C1301      H1305   1.083       .  S
C1302      O1306   1.369       .  S
O1304      H1512   0.990       .  S
O1306      H1307   0.992       .  S
H1308      O1508   0.990       .  S
C1309      C1310   1.397       .  A
C1309      C1314   1.400       .  A
C1310      C1311   1.391       .  A
C1310      H1315   1.085       .  S
C1311      C1312   1.410       .  A
C1311      O1316   1.368       .  S
C1312      C1313   1.405       .  A
C1313      C1314   1.393       .  A
C1313      H1317   1.078       .  S
C1314      O1318   1.372       .  S
O1316      H1320   0.991       .  S
O1318      H1319   0.992       .  S
C1321      C1322   1.414       .  A
C1321      C1326   1.411       .  A
C1322      C1323   1.397       .  A
C1322      H1327   1.083       .  S
C1323      C1324   1.402       .  A
C1323      O1328   1.372       .  S
C1324      C1325   1.414       .  A
C1325      C1326   1.420       .  A
C1325      H1329   1.083       .  S
C1326      O1330   1.369       .  S
O1328      H1332   0.990       .  S
O1330      H1331   0.992       .  S
C1333      C1432   1.487   1_554  S
C1333      C1334   1.404   1_545  A
C1334      C1335   1.400       .  A
C1334      H1339   1.075   1_554  S
C1335      O1340   1.373       .  S
C1336      C1337   1.402       .  A
C1337      C1338   1.400       .  A
C1337      H1341   1.082       .  S
C1338      O1342   1.367       .  S
O1340      H1548   0.991       .  S
O1342      H1343   0.992   1_554  S
H1344      O1544   0.991       .  S
C1345      C1431   1.495       .  S
C1345      C1346   1.407   1_545  A
C1346      C1347   1.404       .  A
C1346      H1351   1.082       .  S
C1347      O1352   1.371       .  S
C1348      C1349   1.402       .  A
C1349      C1350   1.409       .  A
C1349      H1353   1.080       .  S
C1350      O1354   1.374       .  S
O1352      H1356   0.991       .  S
O1354      H1355   0.992       .  S
C1357      C1358   1.403   1_545  A
C1358      C1359   1.400       .  A
C1358      H1363   1.083       .  S
C1359      O1364   1.371       .  S
C1360      C1361   1.402       .  A
C1361      C1362   1.403       .  A
C1361      H1365   1.084       .  S
C1362      O1366   1.372       .  S
O1364      H1368   0.992       .  S
O1366      H1367   0.991       .  S
C1369      C1374   1.405   1_545  A
C1370      C1371   1.400       .  A
C1370      H1375   1.080       .  S
C1371      O1376   1.372       .  S
C1372      C1373   1.406       .  A
C1373      C1374   1.399       .  A
C1373      H1377   1.082       .  S
C1374      O1582   1.371       .  S
O1376      H1380   0.991       .  S
O1378      C1578   1.371       .  S
O1378      H1379   0.989   1_556  S
C1381      C1429   1.475   1_554  S
C1381      C1386   1.411       .  A
C1382      C1383   1.384       .  A
C1382      H1387   1.078       .  S
C1383      O1388   1.372       .  S
C1384      C1385   1.400       .  A
C1385      C1386   1.395       .  A
C1385      H1389   1.084       .  S
C1386      O1390   1.372       .  S
O1388      H1392   0.991       .  S
O1390      H1391   0.990       .  S
C1393      C1398   1.411       .  A
C1394      C1395   1.408       .  A
C1394      H1399   1.083       .  S
C1395      O1400   1.371       .  S
C1396      C1397   1.404       .  A
C1397      C1398   1.408       .  A
C1397      H1401   1.078       .  S
C1398      O1402   1.370       .  S
O1400      H1404   0.992       .  S
O1402      H1403   0.992       .  S
C1405      C1406   1.415       .  A
C1406      C1407   1.420       .  A
C1406      H1411   1.083       .  S
C1407      C1408   1.411       .  A
C1407      O1412   1.370       .  S
C1409      C1410   1.400       .  A
C1409      H1413   1.081       .  S
C1410      O1414   1.374       .  S
O1412      H1416   0.991       .  S
O1414      H1415   0.992       .  S
C1417      C1418   1.396       .  A
C1418      C1419   1.394       .  A
C1418      H1423   1.084       .  S
C1419      C1420   1.413       .  A
C1419      O1424   1.369       .  S
C1420      C1430   1.489       .  S
C1421      C1422   1.393       .  A
C1421      H1425   1.076       .  S
C1422      O1426   1.372       .  S
O1424      H1632   0.992       .  S
O1426      H1427   0.992       .  S
H1428      O1628   0.992       .  S
C1431      C1432   1.369   1_554  D
C1431      C1573   1.486   1_554  S
C1432      C1561   1.490       .  S
C1433      C1434   1.367       .  D
C1433      C1528   1.509       .  S
C1434      C1516   1.486       .  S
O1435      C1446   1.291       .  A
O1435     Eu1471   2.461       .  S
O1436      C1447   1.289       .  A
O1436     Eu1470   2.452       .  S
O1437      C1448   1.289       .  A
O1437     Eu1443   2.445       .  S
O1438      C1449   1.300       .  A
O1439      C1449   1.278       .  A
O1439     Eu1473   2.364       .  S
O1440      C1448   1.296       .  A
O1440     Eu1472   2.486       .  S
O1441      C1447   1.283       .  A
O1442     Eu1443   2.414       .  S
Eu1443     O1445   2.371       .  S
O1444     Eu1470   2.327   1_455  S
O1445     Eu1472   2.359       .  S
C1446      C1621   1.453       .  S
C1447      C1513   1.450       .  S
C1448      C1564   1.473       .  S
H1450      O1451   0.966       .  S
O1451     Eu1470   2.354       .  S
H1452      O1453   0.963       .  S
O1453     Eu1471   2.342       .  S
O1453     Eu1473   2.362       .  S
O1454      C1477   1.287       .  A
O1454     Eu1470   2.438       .  S
O1455      C1478   1.289       .  A
O1455     Eu1471   2.455       .  S
O1456      C1479   1.303       .  A
O1457      C1480   1.306       .  A
O1458      C1481   1.308       .  A
O1458     Eu1473   2.563       .  S
O1459      C1482   1.303       .  A
O1459     Eu1472   2.524       .  S
O1460      C1483   1.297       .  A
O1461      C1484   1.292       .  A
O1461     Eu1474   2.463       .  S
O1462      C1483   1.282       .  A
O1462     Eu1472   2.392       .  S
O1463      C1484   1.296       .  A
O1463     Eu1473   2.492       .  S
O1464      C1479   1.287       .  A
O1464     Eu1470   2.439       .  S
O1465     Eu1471   2.443       .  S
O1466      C1481   1.286       .  A
O1466     Eu1471   2.424       .  S
O1467     Eu1470   2.424       .  S
O1469      C1478   1.285       .  A
O1469     Eu1474   2.412       .  S
Eu1470     O1476   2.322       .  S
Eu1471     O1475   2.367       .  S
Eu1471     O1486   2.327       .  S
Eu1473     O1475   2.360       .  S
Eu1474     O1475   2.362       .  S
Eu1474     O1486   2.325       .  S
C1477      C1588   1.457       .  S
C1478      C1501   1.457       .  S
C1479      C1492   1.512       .  S
C1480      C1612   1.506       .  S
C1481      C1525   1.508       .  S
C1482      C1597   1.506       .  S
C1483      C1540   1.458       .  S
C1484      C1552   1.482       .  S
H1485      O1486   0.963       .  S
H1487      O1488   0.966       .  S
C1489      C1490   1.402       .  A
C1489      C1494   1.408       .  A
C1490      C1491   1.405       .  A
C1490      H1495   1.083       .  S
C1491      C1492   1.424       .  A
C1491      O1496   1.371       .  S
C1492      C1493   1.410       .  A
C1493      C1494   1.414       .  A
C1493      H1497   1.083       .  S
C1494      O1498   1.370       .  S
O1496      H1500   0.992       .  S
O1498      H1499   0.992       .  S
C1501      C1502   1.399       .  A
C1501      C1506   1.406       .  A
C1502      C1503   1.401       .  A
C1502      H1507   1.083       .  S
C1503      C1504   1.411       .  A
C1503      O1508   1.372       .  S
C1504      C1505   1.393       .  A
C1505      C1506   1.382       .  A
C1505      H1509   1.083       .  S
C1506      O1510   1.369       .  S
O1510      H1511   0.992       .  S
C1513      C1514   1.397       .  A
C1513      C1518   1.400       .  A
C1514      C1515   1.391       .  A
C1514      H1519   1.085       .  S
C1515      C1516   1.410       .  A
C1515      O1520   1.368   1_556  S
C1516      C1517   1.405       .  A
C1517      C1518   1.393       .  A
C1517      H1521   1.078       .  S
C1518      O1522   1.372       .  S
O1520      H1524   0.991       .  S
O1522      H1523   0.992       .  S
C1525      C1526   1.414       .  A
C1525      C1530   1.411       .  A
C1526      C1527   1.397       .  A
C1526      H1531   1.083       .  S
C1527      C1528   1.402       .  A
C1527      O1532   1.372       .  S
C1528      C1529   1.414       .  A
C1529      C1530   1.420       .  A
C1529      H1533   1.083       .  S
C1530      O1534   1.369       .  S
O1532      H1536   0.990       .  S
O1534      H1535   0.992       .  S
C1537      C1538   1.404   1_545  A
C1538      C1539   1.400       .  A
C1538      H1543   1.075       .  S
C1539      O1544   1.373       .  S
C1540      C1541   1.402       .  A
C1541      C1542   1.400       .  A
C1541      H1545   1.082       .  S
C1542      O1546   1.367       .  S
O1546      H1547   0.992       .  S
C1549      C1550   1.407   1_545  A
C1550      C1551   1.404       .  A
C1550      H1555   1.082       .  S
C1551      O1556   1.371       .  S
C1552      C1553   1.402       .  A
C1553      C1554   1.409       .  A
C1553      H1557   1.080       .  S
C1554      O1558   1.374       .  S
O1556      H1560   0.991       .  S
O1558      H1559   0.992       .  S
C1561      C1562   1.403   1_545  A
C1562      C1563   1.400       .  A
C1562      H1567   1.083       .  S
C1563      O1568   1.371       .  S
C1564      C1565   1.402       .  A
C1565      C1566   1.403       .  A
C1565      H1569   1.084       .  S
C1566      O1570   1.372       .  S
O1568      H1572   0.992       .  S
O1570      H1571   0.991       .  S
C1573      C1578   1.405   1_545  A
C1574      C1575   1.400       .  A
C1574      H1579   1.080   1_556  S
C1575      O1580   1.372       .  S
C1576      C1577   1.406       .  A
C1577      C1578   1.399       .  A
C1577      H1581   1.082       .  S
O1580      H1584   0.991       .  S
O1582      H1583   0.989       .  S
C1585      C1590   1.411       .  A
C1586      C1587   1.384       .  A
C1586      H1591   1.078       .  S
C1587      O1592   1.372       .  S
C1588      C1589   1.400       .  A
C1589      C1590   1.395       .  A
C1589      H1593   1.084       .  S
C1590      O1594   1.372       .  S
O1592      H1596   0.991       .  S
O1594      H1595   0.990       .  S
C1597      C1602   1.411       .  A
C1598      C1599   1.408       .  A
C1598      H1603   1.083       .  S
C1599      O1604   1.371       .  S
C1600      C1601   1.404       .  A
C1601      C1602   1.408       .  A
C1601      H1605   1.078       .  S
C1602      O1606   1.370       .  S
O1604      H1608   0.992       .  S
O1606      H1607   0.992       .  S
C1609      C1610   1.415       .  A
C1610      C1611   1.420       .  A
C1610      H1615   1.083       .  S
C1611      C1612   1.411       .  A
C1611      O1616   1.370       .  S
C1613      C1614   1.400       .  A
C1613      H1617   1.081       .  S
C1614      O1618   1.374       .  S
O1616      H1620   0.991       .  S
O1618      H1619   0.992       .  S
C1621      C1622   1.396       .  A
C1622      C1623   1.394       .  A
C1622      H1627   1.084       .  S
C1623      C1624   1.413       .  A
C1623      O1628   1.369   1_556  S
C1625      C1626   1.393       .  A
C1625      H1629   1.076       .  S
C1626      O1630   1.372       .  S
O1630      H1631   0.992       .  S
