geometry optimzed in LAMMPS
_audit_creation_date              2020-11-30 
_audit_creation_method            'lammps2cif' 
_symmetry_space_group_name_H-M    'P1' 
_symmetry_Int_Tables_number       1 
_symmetry_cell_setting            triclinic 
loop_ 
_symmetry_equiv_pos_as_xyz 
  x,y,z 
_cell_length_a                    70.89448436 
_cell_length_b                    70.83165649911209 
_cell_length_c                    58.636728914775084 
_cell_angle_alpha                 90.01821987900242 
_cell_angle_beta                  90.0561485886307 
_cell_angle_gamma                 89.79165812738816 
loop_ 
_atom_site_label 
_atom_site_type_symbol 
_atom_site_fract_x 
_atom_site_fract_y 
_atom_site_fract_z 
_atom_site_charge 
N1          N  0.95451820  0.59682987  0.83390658    -0.27500
N2          N  0.96158296  0.59007328  0.85307412    -0.35400
C3          C  0.95506298  0.57252496  0.85640564     0.00800
C4          C  0.94321128  0.56788105  0.83844887     0.06800
C5          C  0.94320198  0.58372415  0.82448067    -0.06300
H6          H  0.95836456  0.56403080  0.87120842     0.07500
H7          H  0.93552771  0.58566134  0.80869933     0.08700
Cu8        Cu  0.97905135  0.60544009  0.87430605     0.44200
Cu9        Cu  0.96082346  0.62379299  0.82253426     0.42000
Cu10       Cu  0.99149914  0.65325893  0.85891656     0.43900
N11         N  0.99498912  0.62306884  0.89471942    -0.34900
N12         N  0.99948710  0.64061853  0.88947994    -0.29200
C13         C  0.00876924  0.64833891  0.90722507    -0.05300
C14         C  0.01018572  0.63494909  0.92448364     0.06900
C15         C  0.00127162  0.61912101  0.91577613     0.00700
H16         H  0.01367773  0.66277003  0.90765145     0.08400
H17         H  0.99871570  0.60588210  0.92438123     0.07500
N18         N  0.98056245  0.66159002  0.82751600    -0.36400
N19         N  0.96957034  0.65092904  0.81464535    -0.28600
C20         C  0.96478863  0.66056610  0.79578403    -0.03800
C21         C  0.97309252  0.67823077  0.79664989     0.04800
C22         C  0.98301092  0.67833504  0.81709397     0.02900
H23         H  0.95559282  0.65509685  0.78265544     0.08000
H24         H  0.99135907  0.68971933  0.82403812     0.06800
N25         N  0.83901849  0.38700780  0.84133947    -0.27500
N26         N  0.83195150  0.39389364  0.86043963    -0.35400
C27         C  0.83765830  0.41181310  0.86305245     0.00800
C28         C  0.84898769  0.41661099  0.84469720     0.06800
C29         C  0.84945273  0.40045428  0.83121806    -0.06300
H30         H  0.83435008  0.42036366  0.87779778     0.07500
H31         H  0.85719186  0.39835921  0.81553787     0.08700
Cu32       Cu  0.81651092  0.37817773  0.88336769     0.44200
Cu33       Cu  0.83553404  0.35898675  0.83164366     0.42000
Cu34       Cu  0.81343278  0.32811336  0.87386874     0.43900
N35         N  0.80412311  0.35971180  0.90601051    -0.34900
N36         N  0.80324911  0.34128669  0.90279041    -0.29200
C37         C  0.79638358  0.33311614  0.92170826    -0.05300
C38         C  0.79277946  0.34711995  0.93765059     0.06900
C39         C  0.79778466  0.36380661  0.92699620     0.00700
H40         H  0.79495670  0.31803579  0.92396718     0.08400
H41         H  0.79812601  0.37776788  0.93446134     0.07500
N42         N  0.82485210  0.31879221  0.84346463    -0.36400
N43         N  0.83254969  0.32993453  0.82800831    -0.28600
C44         C  0.83861548  0.31930836  0.81047810    -0.03800
C45         C  0.83461038  0.30051572  0.81509147     0.04800
C46         C  0.82586041  0.30081919  0.83622777     0.02900
H47         H  0.84555193  0.32497703  0.79558577     0.08000
H48         H  0.82075946  0.28890490  0.84591596     0.06800
N49         N  0.51413605  0.92560946  0.83689700    -0.27500
N50         N  0.50699826  0.92055073  0.85673398    -0.35400
C51         C  0.48945067  0.92754717  0.85861866     0.00800
C52         C  0.48521395  0.93762541  0.83896609     0.06800
C53         C  0.50128615  0.93599822  0.82554724    -0.06300
H54         H  0.48074844  0.92578608  0.87358266     0.07500
H55         H  0.50378745  0.94230231  0.80904547     0.08700
Cu56       Cu  0.52203454  0.90586902  0.88117226     0.44200
Cu57       Cu  0.54157246  0.91921313  0.82745610     0.42000
Cu58       Cu  0.57100744  0.89561033  0.87071257     0.43900
N59         N  0.53979909  0.89392080  0.90510941    -0.34900
N60         N  0.55783914  0.89026436  0.90165013    -0.29200
C61         C  0.56549715  0.88391988  0.92124720    -0.05300
C62         C  0.55154445  0.88361160  0.93790422     0.06900
C63         C  0.53544838  0.89002008  0.92684176     0.00700
H64         H  0.58024295  0.88034598  0.92326083     0.08400
H65         H  0.52161191  0.89234066  0.93404357     0.07500
N66         N  0.58046418  0.90416806  0.83883968    -0.36400
N67         N  0.56987474  0.91263414  0.82330623    -0.28600
C68         C  0.58069666  0.91725507  0.80536121    -0.03800
C69         C  0.59906834  0.91152248  0.80975410     0.04800
C70         C  0.59829361  0.90320053  0.83115512     0.02900
H71         H  0.57559798  0.92492807  0.79064459     0.08000
H72         H  0.60986734  0.89725575  0.84082028     0.06800
N73         N  0.31058732  0.05021960  0.82437486    -0.27500
N74         N  0.31744037  0.05744329  0.84338809    -0.35400
C75         C  0.33524710  0.05137873  0.84619120     0.00800
C76         C  0.33990232  0.03968036  0.82803580     0.06800
C77         C  0.32384541  0.03938332  0.81449984    -0.06300
H78         H  0.34375283  0.05464799  0.86096853     0.07500
H79         H  0.32156222  0.03134956  0.79907416     0.08700
Cu80       Cu  0.30170653  0.07337820  0.86602293     0.44200
Cu81       Cu  0.28295469  0.05365609  0.81419557     0.42000
Cu82       Cu  0.25200620  0.07757927  0.85468180     0.43900
N83         N  0.28286244  0.08582929  0.88835725    -0.34900
N84         N  0.26455032  0.08713439  0.88451885    -0.29200
C85         C  0.25605482  0.09383065  0.90339243    -0.05300
C86         C  0.26971129  0.09685127  0.91999701     0.06900
C87         C  0.28654484  0.09167757  0.90967191     0.00700
H88         H  0.24096106  0.09551291  0.90513379     0.08400
H89         H  0.30034748  0.09092117  0.91748373     0.07500
N90         N  0.24312874  0.06611992  0.82390719    -0.36400
N91         N  0.25439158  0.05745044  0.80929322    -0.28600
C92         C  0.24422479  0.05151422  0.79135250    -0.03800
C93         C  0.22559512  0.05673325  0.79472904     0.04800
C94         C  0.22546495  0.06597452  0.81558628     0.02900
H95         H  0.25009322  0.04406452  0.77689062     0.08000
H96         H  0.21342150  0.07196325  0.82431762     0.06800
C97         C  0.87713120  0.15813544  0.69272729     0.86200
C98         C  0.87562766  0.16306033  0.66730953    -0.54000
C99         C  0.87821355  0.14807799  0.65300181     0.09200
C100        C  0.88228615  0.12942685  0.66547870     0.20100
C101        C  0.86304989  0.14197335  0.69626448    -0.54700
C102        C  0.86559133  0.12699524  0.68194979     0.09300
C103        C  0.89669811  0.14861800  0.69510966    -0.54300
C104        C  0.89951961  0.13364974  0.68066120     0.09800
H105        H  0.87281021  0.17728113  0.66124733     0.14300
H106        H  0.88407037  0.11736862  0.65364645     0.00100
H107        H  0.85188267  0.14248573  0.70892051     0.14700
H108        H  0.90743283  0.15297826  0.70706816     0.14400
C109        C  0.08008513  0.02210296  0.67560394     0.86200
C110        C  0.08363812  0.02388330  0.64983407    -0.54000
C111        C  0.06794532  0.02137498  0.63669069     0.09200
C112        C  0.05000820  0.01747366  0.65056559     0.20100
C113        C  0.06415851  0.03628833  0.68067181    -0.54700
C114        C  0.04838014  0.03415369  0.66742317     0.09300
C115        C  0.07067028  0.00263732  0.67841208    -0.54300
C116        C  0.05502340  0.00017037  0.66517450     0.09800
H117        H  0.09750087  0.02652846  0.64267187     0.14300
H118        H  0.03749697  0.01544664  0.63956978     0.00100
H119        H  0.06547165  0.04705405  0.69373269     0.14700
H120        H  0.07550005  0.99159847  0.68973570     0.14400
C121        C  0.74468285  0.95430251  0.69410531     0.86200
C122        C  0.74006146  0.95295237  0.66853405    -0.54000
C123        C  0.75499724  0.95639076  0.65447400     0.09200
C124        C  0.77332656  0.96099955  0.66736293     0.20100
C125        C  0.76153777  0.94090416  0.69767230    -0.54700
C126        C  0.77655336  0.94412307  0.68356827     0.09300
C127        C  0.75315652  0.97419693  0.69699779    -0.54300
C128        C  0.76811447  0.97777812  0.68294627     0.09800
H129        H  0.72616090  0.94926184  0.66217410     0.14300
H130        H  0.78518706  0.96396080  0.65564787     0.00100
H131        H  0.76140142  0.92978127  0.71039289     0.14700
H132        H  0.74827793  0.98459412  0.70914333     0.14400
C133        C  0.94731390  0.81830876  0.66435630     0.86200
C134        C  0.94581575  0.81643104  0.63819181    -0.54000
C135        C  0.94186163  0.83301329  0.62727052     0.09200
C136        C  0.93968173  0.84994906  0.64344525     0.20100
C137        C  0.96222128  0.83377936  0.66791043    -0.54700
C138        C  0.95831648  0.85043285  0.65702824     0.09300
C139        C  0.92858599  0.82747825  0.67159011    -0.54300
C140        C  0.92436602  0.84403569  0.66070061     0.09800
H141        H  0.94842081  0.80360139  0.62869705     0.14300
H142        H  0.93636963  0.86310500  0.63410687     0.00100
H143        H  0.97465760  0.83166656  0.67842661     0.14700
H144        H  0.91965043  0.82132630  0.68461084     0.14400
N145        N  0.50653951  0.91922032  0.24598323    -0.27500
N146        N  0.49967034  0.91075553  0.22773662    -0.35400
C147        C  0.48146949  0.91563825  0.22522602     0.00800
C148        C  0.47662249  0.92788096  0.24272156     0.06800
C149        C  0.49292765  0.92981445  0.25556524    -0.06300
H150        H  0.47270928  0.91120174  0.21111308     0.07500
H151        H  0.49490764  0.93844260  0.27059117     0.08700
Cu152      Cu  0.51591626  0.89479109  0.20570227     0.44200
Cu153      Cu  0.53431530  0.91658310  0.25608817     0.42000
Cu154      Cu  0.56613113  0.89269647  0.21664948     0.43900
N155        N  0.53531187  0.88390982  0.18289755    -0.34900
N156        N  0.55370318  0.88352086  0.18650925    -0.29200
C157        C  0.56237855  0.87784061  0.16728134    -0.05300
C158        C  0.54877259  0.87451858  0.15070493     0.06900
C159        C  0.53177562  0.87846149  0.16138585     0.00700
H160        H  0.57752088  0.87695978  0.16535031     0.08400
H161        H  0.51788867  0.87861574  0.15374529     0.07500
N162        N  0.57435522  0.90374656  0.24796213    -0.36400
N163        N  0.56267804  0.91226519  0.26222426    -0.28600
C164        C  0.57233434  0.91812269  0.28059740    -0.03800
C165        C  0.59111202  0.91316648  0.27785837     0.04800
C166        C  0.59182818  0.90402947  0.25691430     0.02900
H167        H  0.56610762  0.92590768  0.29457079     0.08000
H168        H  0.60411558  0.89812909  0.24860464     0.06800
N169        N  0.29746984  0.03277154  0.22975218    -0.27500
N170        N  0.30612994  0.03966396  0.21166608    -0.35400
C171        C  0.32390304  0.03305105  0.21122363     0.00800
C172        C  0.32663457  0.02137234  0.22996760     0.06800
C173        C  0.30947372  0.02158161  0.24130459    -0.06300
H174        H  0.33386322  0.03624111  0.19783897     0.07500
H175        H  0.30578589  0.01406694  0.25670103     0.08700
Cu176      Cu  0.29312690  0.05660565  0.18739990     0.44200
Cu177      Cu  0.26962680  0.03839614  0.23758358     0.42000
Cu178      Cu  0.24334714  0.06465847  0.19502646     0.43900
N179        N  0.27619795  0.06987719  0.16333337    -0.34900
N180        N  0.25785856  0.07239251  0.16593382    -0.29200
C181        C  0.25066158  0.07987853  0.14673123    -0.05300
C182        C  0.26518713  0.08225448  0.13118636     0.06900
C183        C  0.28119489  0.07578444  0.14241449     0.00700
H184        H  0.23587038  0.08305253  0.14425531     0.08400
H185        H  0.29532518  0.07465158  0.13560898     0.07500
N186        N  0.23218229  0.05592044  0.22581837    -0.36400
N187        N  0.24175388  0.04635176  0.24133426    -0.28600
C188        C  0.23056641  0.04314833  0.25938206    -0.03800
C189        C  0.21301995  0.05111985  0.25507897     0.04800
C190        C  0.21463514  0.05907740  0.23355967     0.02900
H191        H  0.23507755  0.03573649  0.27456064     0.08000
H192        H  0.20392551  0.06662008  0.22406477     0.06800
N193        N  0.98584292  0.59489200  0.23750614    -0.27500
N194        N  0.99301769  0.58848523  0.21821150    -0.35400
C195        C  0.98979898  0.56986516  0.21667535     0.00800
C196        C  0.98000801  0.56413290  0.23591661     0.06800
C197        C  0.97783450  0.58046550  0.24878817    -0.06300
H198        H  0.99344983  0.56143929  0.20194259     0.07500
H199        H  0.97036042  0.58201335  0.26474349     0.08700
Cu200      Cu  0.00451552  0.60545063  0.19317087     0.44200
Cu201      Cu  0.98539479  0.62329164  0.24614601     0.42000
Cu202      Cu  0.00163842  0.65523839  0.20094238     0.43900
N203        N  0.01202829  0.62457145  0.16817495    -0.34900
N204        N  0.01082838  0.64303684  0.17079768    -0.29200
C205        C  0.01540577  0.65147861  0.15100430    -0.05300
C206        C  0.01970133  0.63758470  0.13507368     0.06900
C207        C  0.01738135  0.62070682  0.14672231     0.00700
H208        H  0.01519881  0.66658685  0.14838021     0.08400
H209        H  0.01870945  0.60655996  0.13997896     0.07500
N210        N  0.99110419  0.66389772  0.23221518    -0.36400
N211        N  0.98527810  0.65251917  0.24860148    -0.28600
C212        C  0.97919900  0.66300798  0.26628133    -0.03800
C213        C  0.98128933  0.68195915  0.26079126     0.04800
C214        C  0.98889479  0.68185862  0.23900631     0.02900
H215        H  0.97361462  0.65714475  0.28188526     0.08000
H216        H  0.99258120  0.69388183  0.22861060     0.06800
N217        N  0.86793428  0.38956598  0.23646530    -0.27500
N218        N  0.86238398  0.39696852  0.21689715    -0.35400
C219        C  0.87163248  0.41326005  0.21350868     0.00800
C220        C  0.88363828  0.41632156  0.23187589     0.06800
C221        C  0.88082080  0.40092670  0.24606523    -0.06300
H222        H  0.86979232  0.42203205  0.19858666     0.07500
H223        H  0.88766858  0.39796977  0.26215241     0.08700
Cu224      Cu  0.84324300  0.38414462  0.19514047     0.44200
Cu225      Cu  0.85837960  0.36412029  0.24923474     0.42000
Cu226      Cu  0.82744843  0.33765742  0.21289337     0.43900
N227        N  0.82671078  0.36663283  0.17512720    -0.34900
N228        N  0.82150425  0.34947317  0.18127605    -0.29200
C229        C  0.81234387  0.34128562  0.16380429    -0.05300
C230        C  0.81159388  0.35395054  0.14581367     0.06900
C231        C  0.82082560  0.36989390  0.15368408     0.00700
H232        H  0.80676545  0.32709868  0.16420005     0.08400
H233        H  0.82375090  0.38267387  0.14425566     0.07500
N234        N  0.83571040  0.32855832  0.24506555    -0.36400
N235        N  0.84737620  0.33815896  0.25822797    -0.28600
C236        C  0.85101041  0.32808143  0.27716978    -0.03800
C237        C  0.84105762  0.31130260  0.27597616     0.04800
C238        C  0.83144420  0.31216744  0.25538998     0.02900
H239        H  0.86041160  0.33257976  0.29064023     0.08000
H240        H  0.82262082  0.30135207  0.24797400     0.06800
C241        C  0.85917008  0.16454373  0.39911453     0.86200
C242        C  0.87836492  0.15560267  0.39329511    -0.54000
C243        C  0.88310289  0.14032671  0.40636777     0.09200
C244        C  0.86783044  0.13515947  0.42395464     0.20100
C245        C  0.84504180  0.14809849  0.39712129    -0.54700
C246        C  0.84946363  0.13274597  0.41021411     0.09300
C247        C  0.86020162  0.16864806  0.42481558    -0.54300
C248        C  0.86481653  0.15335154  0.43794106     0.09800
H249        H  0.88746752  0.16110601  0.38000314     0.14300
H250        H  0.87131657  0.12272141  0.43457594     0.00100
H251        H  0.83270287  0.14812114  0.38630647     0.14700
H252        H  0.85795364  0.18266926  0.43179689     0.14400
C253        C  0.06864069  0.03919298  0.38207547     0.86200
C254        C  0.06041243  0.01960745  0.37719714    -0.54000
C255        C  0.04554642  0.01470558  0.39073733     0.09200
C256        C  0.04016408  0.03022253  0.40804811     0.20100
C257        C  0.05169391  0.05279157  0.38010573    -0.54700
C258        C  0.03674870  0.04823558  0.39376864     0.09300
C259        C  0.07326666  0.03909472  0.40771784    -0.54300
C260        C  0.05845713  0.03419475  0.42134961     0.09800
H261        H  0.06594448  0.01051855  0.36385838     0.14300
H262        H  0.02828796  0.02652969  0.41942380     0.00100
H263        H  0.05137698  0.06509762  0.36923830     0.14700
H264        H  0.08721204  0.04216263  0.41440671     0.14400
C265        C  0.94113317  0.83072282  0.37257263     0.86200
C266        C  0.92157484  0.83998293  0.36914683    -0.54000
C267        C  0.91836184  0.85535731  0.38272590     0.09200
C268        C  0.93522507  0.86030277  0.39817111     0.20100
C269        C  0.95518805  0.84690769  0.36857847    -0.54700
C270        C  0.95226634  0.86245442  0.38205330     0.09300
C271        C  0.94213487  0.82672478  0.39829423    -0.54300
C272        C  0.93914440  0.84217356  0.41168125     0.09800
H273        H  0.91100542  0.83513564  0.35726145     0.14300
H274        H  0.93260449  0.87248789  0.40956098     0.00100
H275        H  0.96643953  0.84597904  0.35608897     0.14700
H276        H  0.94514681  0.81283109  0.40527398     0.14400
C277        C  0.73266222  0.95724915  0.39977377     0.86200
C278        C  0.74077506  0.97734909  0.39787817    -0.54000
C279        C  0.75666690  0.98023705  0.41058151     0.09200
C280        C  0.76313728  0.96262017  0.42395352     0.20100
C281        C  0.74924340  0.94432507  0.39323677    -0.54700
C282        C  0.76526987  0.94686069  0.40590855     0.09300
C283        C  0.72993646  0.95424159  0.42551680    -0.54300
C284        C  0.74584058  0.95696700  0.43823851     0.09800
H285        H  0.73492762  0.98848779  0.38743282     0.14300
H286        H  0.77577172  0.96512125  0.43462342     0.00100
H287        H  0.74820522  0.93418680  0.37942490     0.14700
H288        H  0.71654731  0.95011296  0.43295193     0.14400
C289        C  0.89988752  0.86543760  0.38366992    -0.03600
C290        C  0.88284962  0.85575137  0.37975413    -0.09400
C291        C  0.86551140  0.86512519  0.38165888    -0.17000
C292        C  0.86495045  0.88426043  0.38756130     0.25100
C293        C  0.88176766  0.89401319  0.39133590    -0.18700
C294        C  0.89908025  0.88469768  0.38937764    -0.07600
C295        C  0.84720049  0.89395720  0.39005322    -0.14100
C296        C  0.83274147  0.90272095  0.39257224    -0.13800
C297        C  0.81584558  0.91369538  0.39593312     0.25000
C298        C  0.81688836  0.93154430  0.40603488    -0.19200
C299        C  0.80052068  0.94225391  0.40935049    -0.07700
C300        C  0.78278374  0.93534121  0.40256840    -0.03700
C301        C  0.78194536  0.91722033  0.39259850    -0.09100
C302        C  0.79834540  0.90655492  0.38924920    -0.16700
H303        H  0.88282933  0.84083093  0.37578900     0.11500
H304        H  0.85256044  0.85740329  0.37878396     0.10700
H305        H  0.88150522  0.90884481  0.39586576     0.10700
H306        H  0.91176179  0.89270169  0.39221216     0.11200
H307        H  0.83037841  0.93720979  0.41131715     0.11300
H308        H  0.80198931  0.95601420  0.41701734     0.11200
H309        H  0.76863322  0.91103671  0.38766799     0.11400
H310        H  0.79734972  0.89268070  0.38154902     0.10200
C311        C  0.96462775  0.87949133  0.38176177    -0.03600
C312        C  0.98377210  0.87822018  0.37540691    -0.09400
C313        C  0.99529391  0.89425417  0.37566171    -0.17000
C314        C  0.98787967  0.91174964  0.38231561     0.25100
C315        C  0.96894631  0.91314475  0.38867907    -0.18700
C316        C  0.95743541  0.89720387  0.38837926    -0.07600
C317        C  0.99950542  0.92838067  0.38273121    -0.14100
C318        C  0.00821842  0.94295943  0.38364466    -0.13800
C319        C  0.01765772  0.96087696  0.38535169     0.25000
C320        C  0.00774282  0.97676854  0.39299117    -0.19200
C321        C  0.01681040  0.99419049  0.39485201    -0.07700
C322        C  0.03594472  0.99604938  0.38902005    -0.03700
C323        C  0.04582495  0.97990438  0.38146804    -0.09100
C324        C  0.03672406  0.96247809  0.37961032    -0.16700
H325        H  0.98999423  0.86482342  0.37064025     0.11500
H326        H  0.00998103  0.89298015  0.37079361     0.10700
H327        H  0.96303004  0.92661315  0.39383458     0.10700
H328        H  0.94286667  0.89897632  0.39310973     0.11200
H329        H  0.99296359  0.97570496  0.39748966     0.11300
H330        H  0.00866875  0.00616574  0.40053562     0.11200
H331        H  0.06066702  0.98060321  0.37729575     0.11400
H332        H  0.04458572  0.95024574  0.37380568     0.10200
C333        C  0.76636833  0.99880696  0.41157523    -0.03600
C334        C  0.78609400  0.99975548  0.41337051    -0.09400
C335        C  0.79523380  0.01719578  0.41397787    -0.17000
C336        C  0.78476783  0.03396063  0.41285489     0.25100
C337        C  0.76510428  0.03321033  0.41117947    -0.18700
C338        C  0.75594683  0.01576422  0.41055923    -0.07600
C339        C  0.79431124  0.05185749  0.41320141    -0.14100
C340        C  0.80305408  0.06642608  0.41325374    -0.13800
C341        C  0.81449470  0.08316826  0.41299604     0.25000
C342        C  0.80624708  0.10097762  0.41004942    -0.15600
C343        C  0.81756624  0.11711182  0.40927881    -0.07700
C344        C  0.83732099  0.11563532  0.41140019    -0.03700
C345        C  0.84536612  0.09767297  0.41465500    -0.09100
C346        C  0.83405700  0.08157846  0.41538171    -0.16700
H347        H  0.79455255  0.98704829  0.41383655     0.11500
H348        H  0.81047399  0.01761132  0.41517935     0.10700
H349        H  0.75684784  0.04610042  0.41035412     0.10700
H350        H  0.74070454  0.01556686  0.40954653     0.11200
H351        H  0.79109359  0.10239416  0.40829429     0.11300
H352        H  0.81081021  0.13073593  0.40725779     0.11200
H353        H  0.86039874  0.09589762  0.41621045     0.11400
H354        H  0.84060447  0.06785632  0.41763843     0.10200
C355        C  0.01925657  0.05999359  0.39511195    -0.03600
C356        C  0.01980975  0.07960321  0.39097874    -0.09400
C357        C  0.00333051  0.09050466  0.39189968    -0.17000
C358        C  0.98607153  0.08204019  0.39710176     0.25100
C359        C  0.98538067  0.06265267  0.40148496    -0.18700
C360        C  0.00181907  0.05173132  0.40052193    -0.07600
C361        C  0.96904731  0.09316829  0.39808167    -0.14100
C362        C  0.95445046  0.10192328  0.39921333    -0.13800
C363        C  0.93663411  0.11165179  0.40096954     0.25000
C364        C  0.92041238  0.10163539  0.40694160    -0.19200
C365        C  0.90307309  0.11095709  0.40878361    -0.07700
C366        C  0.90162062  0.13042690  0.40448731    -0.03700
C367        C  0.91806680  0.14041809  0.39862001    -0.09100
C368        C  0.93544201  0.13108274  0.39688320    -0.16700
H369        H  0.03297789  0.08665165  0.38734387     0.11500
H370        H  0.00407134  0.10553936  0.38863842     0.10700
H371        H  0.97209586  0.05593883  0.40556364     0.10700
H372        H  0.00068056  0.03679772  0.40366748     0.11200
H373        H  0.92115676  0.08658812  0.41016987     0.11300
H374        H  0.89084215  0.10279251  0.41324687     0.11200
H375        H  0.91758820  0.15549915  0.39569610     0.11400
H376        H  0.94793495  0.13902439  0.39241219     0.10200
C377        C  0.84177458  0.29523669  0.29214149    -0.03600
C378        C  0.82699729  0.28205688  0.29293904    -0.09400
C379        C  0.82810253  0.26638948  0.30741785    -0.17000
C380        C  0.84402440  0.26363201  0.32117778     0.25100
C381        C  0.85868248  0.27681246  0.32071436    -0.18700
C382        C  0.85754100  0.29256078  0.30638291    -0.07600
C383        C  0.84558930  0.24703548  0.33527817    -0.14100
C384        C  0.84732789  0.23296403  0.34670128    -0.13800
C385        C  0.84985254  0.21601661  0.35997047     0.25000
C386        C  0.86563854  0.21398101  0.37406274    -0.19200
C387        C  0.86831174  0.19738770  0.38656684    -0.07700
C388        C  0.85529382  0.18241363  0.38520019    -0.03700
C389        C  0.83931571  0.18477654  0.37104402    -0.09100
C390        C  0.83669002  0.20141519  0.35856196    -0.16700
H391        H  0.81459678  0.28383278  0.28235886     0.11500
H392        H  0.81664419  0.25631210  0.30767213     0.10700
H393        H  0.87110517  0.27479740  0.33122649     0.10700
H394        H  0.86923007  0.30234097  0.30602685     0.11200
H395        H  0.87594526  0.22519118  0.37531949     0.11300
H396        H  0.88068796  0.19615576  0.39732027     0.11200
H397        H  0.82867458  0.17407430  0.36929877     0.11400
H398        H  0.82438272  0.20285600  0.34771829     0.10200
C399        C  0.94574963  0.81299878  0.35876003    -0.03600
C400        C  0.96354669  0.80438193  0.36183302    -0.09400
C401        C  0.96809473  0.78747606  0.35080473    -0.17000
C402        C  0.95496152  0.77886358  0.33642568     0.25100
C403        C  0.93737033  0.78732335  0.33290266    -0.18700
C404        C  0.93275513  0.80421710  0.34391604    -0.07600
C405        C  0.95953126  0.76144364  0.32506809    -0.14100
C406        C  0.96320775  0.74714288  0.31483990    -0.13800
C407        C  0.96768621  0.73069366  0.30150294     0.25000
C408        C  0.96453606  0.71257255  0.31016132    -0.19200
C409        C  0.96890632  0.69667699  0.29697122    -0.07700
C410        C  0.97649423  0.69872718  0.27491361    -0.03700
C411        C  0.97952719  0.71707037  0.26643825    -0.09100
C412        C  0.97515694  0.73288555  0.27963449    -0.16700
H413        H  0.97386442  0.81065922  0.37313833     0.11500
H414        H  0.98180926  0.78108108  0.35360140     0.10700
H415        H  0.92712419  0.78078081  0.32170903     0.10700
H416        H  0.91889552  0.80988944  0.34076694     0.11200
H417        H  0.95871195  0.71072660  0.32708739     0.11300
H418        H  0.96633697  0.68286303  0.30413641     0.11200
H419        H  0.98528866  0.71936631  0.24962030     0.11400
H420        H  0.97761440  0.74685802  0.27275081     0.10200
C421        C  0.89672502  0.43239206  0.23548917    -0.03600
C422        C  0.90814218  0.43334345  0.25515679    -0.09400
C423        C  0.92030374  0.44859113  0.25859615    -0.17000
C424        C  0.92124147  0.46307220  0.24244774     0.25100
C425        C  0.91005854  0.46223326  0.22282588    -0.18700
C426        C  0.89790278  0.44703700  0.21934127    -0.07600
C427        C  0.93352073  0.47893836  0.24581598    -0.14100
C428        C  0.94314386  0.49289633  0.24681905    -0.13800
C429        C  0.95369524  0.51016294  0.24569055     0.25000
C430        C  0.96733604  0.51247056  0.22873206    -0.19200
C431        C  0.97631485  0.52984229  0.22601437    -0.07700
C432        C  0.97169295  0.54524104  0.24017167    -0.03700
C433        C  0.95836126  0.54257402  0.25765853    -0.09100
C434        C  0.94939712  0.52515807  0.26033906    -0.16700
H435        H  0.90772677  0.42240450  0.26798977     0.11500
H436        H  0.92891954  0.44910001  0.27385424     0.10700
H437        H  0.91069472  0.47338592  0.21020512     0.10700
H438        H  0.88944010  0.44689974  0.20400180     0.11200
H439        H  0.97072828  0.50096086  0.21724946     0.11300
H440        H  0.98663656  0.53120077  0.21255929     0.11200
H441        H  0.95438400  0.55402598  0.26888011     0.11400
H442        H  0.93876898  0.52354374  0.27345386     0.10200
C443        C  0.19626053  0.05122844  0.27019113    -0.03600
C444        C  0.19599164  0.04030112  0.29023896    -0.09400
C445        C  0.18011346  0.04027683  0.30432133    -0.17000
C446        C  0.16430949  0.05115652  0.29860354     0.25100
C447        C  0.16443692  0.06215266  0.27881703    -0.18700
C448        C  0.18029544  0.06221210  0.26469955    -0.07600
C449        C  0.14785217  0.05072694  0.31284899    -0.14100
C450        C  0.13412154  0.04973515  0.32484553    -0.13800
C451        C  0.11789395  0.04771739  0.33927544     0.25000
C452        C  0.10163784  0.05841611  0.33521080    -0.19200
C453        C  0.08571196  0.05611547  0.34896928    -0.07700
C454        C  0.08583360  0.04303151  0.36714766    -0.03700
C455        C  0.10228728  0.03217826  0.37072804    -0.09100
C456        C  0.11819646  0.03461552  0.35706144    -0.16700
H457        H  0.20790951  0.03159287  0.29502191     0.11500
H458        H  0.18011853  0.03167065  0.31959696     0.10700
H459        H  0.15225336  0.07062865  0.27425042     0.10700
H460        H  0.17997130  0.07091750  0.24956401     0.11200
H461        H  0.10118846  0.06840216  0.32122157     0.11300
H462        H  0.07338042  0.06429565  0.34464734     0.11200
H463        H  0.10277356  0.02166423  0.38412488     0.11400
H464        H  0.13066574  0.02611265  0.36021397     0.10200
C465        C  0.71483961  0.95268133  0.38619307    -0.03600
C466        C  0.70549763  0.96585714  0.37201083    -0.09400
C467        C  0.68934072  0.96071613  0.35984983    -0.17000
C468        C  0.68217703  0.94242325  0.36159331     0.25100
C469        C  0.69117735  0.92923965  0.37562652    -0.18700
C470        C  0.70733375  0.93431291  0.38779692    -0.07600
C471        C  0.66586170  0.93708057  0.34854054    -0.14100
C472        C  0.65254543  0.93261590  0.33697577    -0.13800
C473        C  0.63711096  0.92733965  0.32240760     0.25000
C474        C  0.64070342  0.92090612  0.30027494    -0.19200
C475        C  0.62577405  0.91606533  0.28586500    -0.07700
C476        C  0.60699949  0.91765185  0.29339648    -0.03700
C477        C  0.60355217  0.92398876  0.31578700    -0.09100
C478        C  0.61851877  0.92880188  0.33017401    -0.16700
H479        H  0.71035559  0.98012978  0.36993303     0.11500
H480        H  0.68247848  0.97102236  0.34895969     0.10700
H481        H  0.68578058  0.91499832  0.37706615     0.10700
H482        H  0.71410460  0.92381768  0.39849164     0.11200
H483        H  0.65505865  0.91975639  0.29408763     0.11300
H484        H  0.62899514  0.91139341  0.26874093     0.11200
H485        H  0.58932874  0.92522003  0.32228542     0.11400
H486        H  0.61558296  0.93373069  0.34730656     0.10200
C487        C  0.34387418  0.01047960  0.23594812    -0.03600
C488        C  0.36057540  0.01289809  0.22335011    -0.09400
C489        C  0.37661550  0.00220194  0.22832067    -0.17000
C490        C  0.37628243  0.98895257  0.24595802     0.25100
C491        C  0.35990997  0.98661384  0.25892192    -0.18700
C492        C  0.34379346  0.99732209  0.25398075    -0.07600
C493        C  0.39261889  0.97736571  0.24992389    -0.14100
C494        C  0.40677097  0.96797646  0.25110487    -0.13800
C495        C  0.42400648  0.95728942  0.25029477     0.25000
C496        C  0.44017704  0.96402031  0.26124131    -0.19200
C497        C  0.45726038  0.95427211  0.25915018    -0.07700
C498        C  0.45837581  0.93772719  0.24592622    -0.03700
C499        C  0.44197013  0.93095879  0.23522888    -0.09100
C500        C  0.42490165  0.94069142  0.23741176    -0.16700
H501        H  0.36134256  0.02294633  0.20951914     0.11500
H502        H  0.38924256  0.00411348  0.21819047     0.10700
H503        H  0.35951407  0.97635387  0.27261285     0.10700
H504        H  0.33126594  0.99502159  0.26408789     0.11200
H505        H  0.43965503  0.97696703  0.27107133     0.11300
H506        H  0.46964144  0.95997987  0.26741611     0.11200
H507        H  0.44229073  0.91818119  0.22511639     0.11400
H508        H  0.41246736  0.93541886  0.22877878     0.10200
C509        C  0.94069422  0.83467340  0.60206835    -0.03600
C510        C  0.93291064  0.82005485  0.58886983    -0.09400
C511        C  0.93208867  0.82159623  0.56512154    -0.17000
C512        C  0.93904715  0.83773265  0.55428634     0.25100
C513        C  0.94673645  0.85238048  0.56728336    -0.18700
C514        C  0.94756124  0.85087424  0.59103006    -0.07600
C515        C  0.93864978  0.83908715  0.52981997    -0.14100
C516        C  0.93860526  0.83994375  0.50929711    -0.13800
C517        C  0.93874663  0.84054598  0.48478797     0.25000
C518        C  0.93084138  0.82571985  0.47227685    -0.19200
C519        C  0.93111957  0.82614112  0.44846200    -0.07700
C520        C  0.93923488  0.84146880  0.43690386    -0.03700
C521        C  0.94712916  0.85632058  0.44956783    -0.09100
C522        C  0.94692949  0.85582729  0.47339985    -0.16700
H523        H  0.92731678  0.80751077  0.59690945     0.11500
H524        H  0.92609213  0.81017990  0.55521175     0.10700
H525        H  0.95225936  0.86488518  0.55905034     0.10700
H526        H  0.95395893  0.86221151  0.60066851     0.11200
H527        H  0.92444592  0.81384592  0.48093108     0.11300
H528        H  0.92471729  0.81464950  0.43908842     0.11200
H529        H  0.95366305  0.86817993  0.44105513     0.11400
H530        H  0.95317052  0.86733085  0.48293138     0.10200
C531        C  0.74625006  0.95510973  0.46349206    -0.03600
C532        C  0.73087952  0.96123652  0.47677068    -0.09400
C533        C  0.73164321  0.96025376  0.50059277    -0.17000
C534        C  0.74771375  0.95304433  0.51148140     0.25100
C535        C  0.76291759  0.94655176  0.49836293    -0.18700
C536        C  0.76221772  0.94761622  0.47452840    -0.07600
C537        C  0.74882129  0.95288353  0.53607551    -0.14100
C538        C  0.74984268  0.95326907  0.55664851    -0.13800
C539        C  0.75112353  0.95406961  0.58121371     0.25000
C540        C  0.76738694  0.94759104  0.59235978    -0.19200
C541        C  0.76866113  0.94840850  0.61616961    -0.07700
C542        C  0.75363710  0.95564976  0.62917725    -0.03700
C543        C  0.73735292  0.96215332  0.61785810    -0.09100
C544        C  0.73613995  0.96140803  0.59404272    -0.16700
H545        H  0.71846991  0.96725464  0.46877315     0.11500
H546        H  0.71980177  0.96536950  0.51052573     0.10700
H547        H  0.77540424  0.94086532  0.50656200     0.10700
H548        H  0.77413569  0.94251444  0.46473956     0.11200
H549        H  0.77907270  0.94185848  0.58264936     0.11300
H550        H  0.78126901  0.94306514  0.62440729     0.11200
H551        H  0.72565701  0.96803938  0.62739515     0.11400
H552        H  0.72351838  0.96656613  0.58563895     0.10200
C553        C  0.79381160  0.93192581  0.68331763    -0.03600
C554        C  0.79289623  0.91280175  0.68991217    -0.09400
C555        C  0.80892867  0.90124118  0.68903273    -0.17000
C556        C  0.82613582  0.90854105  0.68151547     0.25100
C557        C  0.82726882  0.92751455  0.67508280    -0.18700
C558        C  0.81125959  0.93908789  0.67592841    -0.07600
C559        C  0.84249657  0.89648794  0.67966926    -0.14100
C560        C  0.85639281  0.88679450  0.67724802    -0.13800
C561        C  0.87335591  0.87597297  0.67338982     0.25000
C562        C  0.88944066  0.88493433  0.66500539    -0.19200
C563        C  0.90590069  0.87458987  0.66087473    -0.07700
C564        C  0.90665877  0.85503571  0.66507806    -0.03700
C565        C  0.89028370  0.84612532  0.67342151    -0.09100
C566        C  0.87380058  0.85652986  0.67757696    -0.16700
H567        H  0.77971372  0.90654410  0.69519950     0.11500
H568        H  0.80782712  0.88653385  0.69390869     0.10700
H569        H  0.84051081  0.93334156  0.66920043     0.10700
H570        H  0.81271750  0.95360748  0.67080828     0.11200
H571        H  0.88927292  0.89997588  0.66163083     0.11300
H572        H  0.91796571  0.88213049  0.65461807     0.11200
H573        H  0.88999747  0.83106419  0.67640470     0.11400
H574        H  0.86137700  0.84938003  0.68390049     0.10200
C575        C  0.06813215  0.02196697  0.61140146    -0.03600
C576        C  0.07959995  0.03488867  0.59968793    -0.09400
C577        C  0.07890457  0.03602654  0.57588179    -0.17000
C578        C  0.06682714  0.02421842  0.56352680     0.25100
C579        C  0.05570201  0.01102863  0.57503929    -0.18700
C580        C  0.05636355  0.00988150  0.59881506    -0.07600
C581        C  0.06559472  0.02582521  0.53908938    -0.14100
C582        C  0.06434714  0.02725044  0.51864341    -0.13800
C583        C  0.06285145  0.02902204  0.49423750     0.25000
C584        C  0.05160396  0.01647467  0.48181690    -0.19200
C585        C  0.05017088  0.01818720  0.45811314    -0.07700
C586        C  0.06000729  0.03246345  0.44652585    -0.03700
C587        C  0.07132658  0.04497378  0.45913076    -0.09100
C588        C  0.07269101  0.04327797  0.48284139    -0.16700
H589        H  0.08870967  0.04444859  0.60894024     0.11500
H590        H  0.08759635  0.04627668  0.56713875     0.10700
H591        H  0.04641073  0.00171975  0.56564979     0.10700
H592        H  0.04771112  0.99947378  0.60731175     0.11200
H593        H  0.04398938  0.00533225  0.49044123     0.11300
H594        H  0.04161933  0.00814008  0.44883516     0.11200
H595        H  0.07891153  0.05622339  0.45070438     0.11400
H596        H  0.08140422  0.05309540  0.49228476     0.10200
C597        C  0.04469263  0.98202987  0.66397124    -0.03600
C598        C  0.02500335  0.98180508  0.66135140    -0.09400
C599        C  0.01534624  0.96466935  0.66002305    -0.17000
C600        C  0.02527870  0.94757847  0.66120156     0.25100
C601        C  0.04489596  0.94766527  0.66363039    -0.18700
C602        C  0.05455796  0.96477528  0.66501321    -0.07600
C603        C  0.01530153  0.92997321  0.66018394    -0.14100
C604        C  0.00638872  0.91553826  0.65954955    -0.13800
C605        C  0.99461164  0.89907515  0.65888148     0.25000
C606        C  0.00235096  0.88097983  0.66129610    -0.19200
C607        C  0.99062850  0.86511375  0.66073850    -0.07700
C608        C  0.97098678  0.86718272  0.65782048    -0.03700
C609        C  0.96349530  0.88547979  0.65540791    -0.09100
C610        C  0.97518783  0.90125989  0.65592651    -0.16700
H611        H  0.01702770  0.99481640  0.66072274     0.11500
H612        H  0.00013569  0.96474744  0.65819634     0.10700
H613        H  0.05272192  0.93451540  0.66445810     0.10700
H614        H  0.06977434  0.96449488  0.66656743     0.11200
H615        H  0.01741589  0.87913029  0.66353309     0.11300
H616        H  0.99701487  0.85127348  0.66223617     0.11200
H617        H  0.94858369  0.88779725  0.65345585     0.11400
H618        H  0.96903556  0.91520999  0.65411933     0.10200
C619        C  0.87687311  0.14964587  0.62785756    -0.03600
C620        C  0.86396170  0.16225668  0.61776909    -0.09400
C621        C  0.86267123  0.16368292  0.59407388    -0.17000
C622        C  0.87424174  0.15253306  0.58020059     0.25100
C623        C  0.88705413  0.13986656  0.59006431    -0.18700
C624        C  0.88838363  0.13842755  0.61377304    -0.07600
C625        C  0.87294088  0.15404914  0.55583987    -0.14100
C626        C  0.87187037  0.15493491  0.53538406    -0.13800
C627        C  0.87059215  0.15514058  0.51094944     0.25000
C628        C  0.88095561  0.14207462  0.49818155    -0.19200
C629        C  0.87929279  0.14170623  0.47446245    -0.07700
C630        C  0.86703433  0.15427826  0.46316502    -0.03700
C631        C  0.85685398  0.16756393  0.47619450    -0.09100
C632        C  0.85868287  0.16801244  0.49992885    -0.16700
H633        H  0.85467193  0.17083031  0.62816639     0.11500
H634        H  0.85262838  0.17344400  0.58657993     0.10700
H635        H  0.89607567  0.13117782  0.57943324     0.10700
H636        H  0.89863878  0.12878769  0.62102978     0.11200
H637        H  0.89030189  0.13212175  0.50657272     0.11300
H638        H  0.88781212  0.13168236  0.46507321     0.11200
H639        H  0.84713890  0.17733701  0.46818369     0.11400
H640        H  0.85058853  0.17818806  0.50969542     0.10200
C641        C  0.85284232  0.11043422  0.68161066    -0.03600
C642        C  0.83330263  0.11270454  0.68490186    -0.09400
C643        C  0.82133737  0.09705174  0.68444615    -0.17000
C644        C  0.82876794  0.07898041  0.68075666     0.25100
C645        C  0.84815996  0.07662625  0.67736674    -0.18700
C646        C  0.86010591  0.09225183  0.67774584    -0.07600
C647        C  0.81665344  0.06274844  0.68083936    -0.14100
C648        C  0.80731905  0.04857109  0.68112559    -0.13800
C649        C  0.79730088  0.03096204  0.68154491     0.25000
C650        C  0.80701786  0.01414545  0.67718860    -0.19200
C651        C  0.79751866  0.99692779  0.67770003    -0.07700
C652        C  0.77813826  0.99621604  0.68258382    -0.03700
C653        C  0.76845184  0.01324587  0.68695850    -0.09100
C654        C  0.77799781  0.03050364  0.68645616    -0.16700
H655        H  0.82725157  0.12658868  0.68755394     0.11500
H656        H  0.80633022  0.09903414  0.68702711     0.10700
H657        H  0.85407229  0.06268531  0.67459159     0.10700
H658        H  0.87503471  0.09000838  0.67546757     0.11200
H659        H  0.82198857  0.01432665  0.67348411     0.11300
H660        H  0.80549715  0.98421087  0.67462451     0.11200
H661        H  0.75345985  0.01329499  0.69042198     0.11400
H662        H  0.77032643  0.04346270  0.68982835     0.10200
C663        C  0.91776604  0.12314597  0.67895132    -0.03600
C664        C  0.91815489  0.10421136  0.67168708    -0.09400
C665        C  0.93522745  0.09445798  0.66959075    -0.17000
C666        C  0.95224347  0.10345243  0.67463579     0.25100
C667        C  0.95211696  0.12229895  0.68177275    -0.18700
C668        C  0.93502602  0.13209537  0.68389288    -0.07600
C669        C  0.96972936  0.09316308  0.67276600    -0.14100
C670        C  0.98388854  0.08373593  0.67144025    -0.13800
C671        C  0.00015318  0.07154436  0.67016863     0.25000
C672        C  0.01775913  0.07776165  0.67780798    -0.19200
C673        C  0.03341186  0.06568411  0.67695836    -0.07700
C674        C  0.03166599  0.04707852  0.66861628    -0.03700
C675        C  0.01382181  0.04106830  0.66098894    -0.09100
C676        C  0.99825511  0.05320649  0.66169958    -0.16700
H677        H  0.90534657  0.09673940  0.66778443     0.11500
H678        H  0.93513991  0.07985052  0.66409167     0.10700
H679        H  0.96522336  0.12944193  0.68564367     0.10700
H680        H  0.93543220  0.14676986  0.68897982     0.11200
H681        H  0.01940884  0.09195980  0.68437722     0.11300
H682        H  0.04688068  0.07112571  0.68252449     0.11200
H683        H  0.01160872  0.02693198  0.65474802     0.11400
H684        H  0.98466531  0.04820288  0.65582233     0.10200
C685        C  0.26687936  0.10140433  0.94448473    -0.03600
C686        C  0.24889288  0.10014078  0.95453113    -0.09400
C687        C  0.24673628  0.10204784  0.97814728    -0.17000
C688        C  0.26247448  0.10538912  0.99197905     0.25100
C689        C  0.28024826  0.10757551  0.98203228    -0.18700
C690        C  0.28244359  0.10567032  0.95847254    -0.07600
C691        C  0.26079299  0.10499602  0.01643585    -0.14100
C692        C  0.26052266  0.10312725  0.03687271    -0.13800
C693        C  0.26138606  0.09928148  0.06095782     0.25000
C694        C  0.27880978  0.09937902  0.07218334    -0.19200
C695        C  0.27999997  0.09418991  0.09513870    -0.07700
C696        C  0.26374561  0.08881085  0.10721496    -0.03700
C697        C  0.24621444  0.08917429  0.09590641    -0.09100
C698        C  0.24507140  0.09431662  0.07291061    -0.16700
H699        H  0.23658300  0.09689007  0.94437742     0.11500
H700        H  0.23290507  0.10028606  0.98567877     0.10700
H701        H  0.29253188  0.11018299  0.99256995     0.10700
H702        H  0.29644026  0.10708207  0.95136632     0.11200
H703        H  0.29154364  0.10315051  0.06307854     0.11300
H704        H  0.29367959  0.09428592  0.10333121     0.11200
H705        H  0.23342997  0.08499964  0.10457118     0.11400
H706        H  0.23152421  0.09405952  0.06434881     0.10200
C707        C  0.09794908  0.02597076  0.68937672    -0.03600
C708        C  0.10620449  0.04401469  0.68788349    -0.09400
C709        C  0.12275513  0.04823712  0.69974975    -0.17000
C710        C  0.13145493  0.03446069  0.71321589     0.25100
C711        C  0.12357056  0.01646982  0.71479149    -0.18700
C712        C  0.10699493  0.01220069  0.70300200    -0.07600
C713        C  0.14835038  0.03878249  0.72567522    -0.14100
C714        C  0.16222621  0.04217755  0.73677103    -0.13800
C715        C  0.17832178  0.04609989  0.75086178     0.25000
C716        C  0.17707049  0.05987796  0.76787600    -0.19200
C717        C  0.19246910  0.06337812  0.78210289    -0.07700
C718        C  0.20935972  0.05313823  0.77946089    -0.03700
C719        C  0.21052947  0.03939667  0.76216447    -0.09100
C720        C  0.19507473  0.03588685  0.74798563    -0.16700
H721        H  0.09978238  0.05488080  0.67741947     0.11500
H722        H  0.12876101  0.06223604  0.69840007     0.10700
H723        H  0.13026908  0.00568404  0.72514219     0.10700
H724        H  0.10176276  0.99802213  0.70461949     0.11200
H725        H  0.16414976  0.06786013  0.77022359     0.11300
H726        H  0.19113064  0.07418519  0.79504509     0.11200
H727        H  0.22324047  0.03113990  0.75976232     0.11400
H728        H  0.19614442  0.02512288  0.73491131     0.10200
C729        C  0.55168427  0.87049125  0.12610559    -0.03600
C730        C  0.56952276  0.87289548  0.11600738    -0.09400
C731        C  0.57178127  0.87103035  0.09241961    -0.17000
C732        C  0.55630429  0.86661220  0.07863304     0.25100
C733        C  0.53866755  0.86347075  0.08858875    -0.18700
C734        C  0.53636423  0.86534640  0.11215168    -0.07600
C735        C  0.55811420  0.86670634  0.05419309    -0.14100
C736        C  0.55840541  0.86814469  0.03371155    -0.13800
C737        C  0.55687503  0.87126186  0.00953219     0.25000
C738        C  0.53945048  0.87652114  0.00034954    -0.19200
C739        C  0.53771606  0.88026470  0.97709274    -0.07700
C740        C  0.55344697  0.87889004  0.96252075    -0.03700
C741        C  0.57093562  0.87339485  0.97189853    -0.09100
C742        C  0.57262639  0.86963088  0.99527666    -0.16700
H743        H  0.58162666  0.87690327  0.12612078     0.11500
H744        H  0.58548319  0.87356884  0.08487405     0.10700
H745        H  0.52657546  0.86004922  0.07807130     0.10700
H746        H  0.52249349  0.86310738  0.11930652     0.11200
H747        H  0.52717396  0.87788522  0.01123513     0.11300
H748        H  0.52399809  0.88437995  0.97074334     0.11200
H749        H  0.58336116  0.87214294  0.96131891     0.11400
H750        H  0.58621963  0.86561354  0.00223976     0.10200
C751        C  0.61605791  0.91503840  0.79560225    -0.03600
C752        C  0.61432842  0.92151635  0.77298453    -0.09400
C753        C  0.63038582  0.92556952  0.76004657    -0.17000
C754        C  0.64837162  0.92319030  0.76950053     0.25100
C755        C  0.65024459  0.91654437  0.79183832    -0.18700
C756        C  0.63423905  0.91247085  0.80479238    -0.07600
C757        C  0.66493262  0.92793072  0.75654730    -0.14100
C758        C  0.67896206  0.93220978  0.74617274    -0.13800
C759        C  0.69566254  0.93769677  0.73392364     0.25000
C760        C  0.70293515  0.95589535  0.73650907    -0.19200
C761        C  0.71882359  0.96150751  0.72413654    -0.07700
C762        C  0.72775401  0.94892175  0.70885664    -0.03700
C763        C  0.72033533  0.93054630  0.70670175    -0.09100
C764        C  0.70448848  0.92498698  0.71912282    -0.16700
H765        H  0.60061703  0.92351718  0.76523262     0.11500
H766        H  0.62876544  0.93068963  0.74274224     0.10700
H767        H  0.66409874  0.91469085  0.79934799     0.10700
H768        H  0.63620599  0.90765193  0.82212687     0.11200
H769        H  0.69619282  0.96585477  0.74795377     0.11300
H770        H  0.72362064  0.97577134  0.72657139     0.11200
H771        H  0.72678030  0.92049805  0.69513311     0.11400
H772        H  0.69901518  0.91083289  0.71699162     0.10200
C773        C  0.46784248  0.94874490  0.83417549    -0.03600
C774        C  0.46578479  0.95878277  0.81357639    -0.09400
C775        C  0.44968121  0.96974125  0.80950827    -0.17000
C776        C  0.43541689  0.97077877  0.82590927     0.25100
C777        C  0.43719603  0.96072690  0.84630290    -0.18700
C778        C  0.45324718  0.94977451  0.85041752    -0.07600
C779        C  0.41920284  0.98261837  0.82231673    -0.14100
C780        C  0.40564627  0.99283894  0.82102125    -0.13800
C781        C  0.38961917  0.00526563  0.82172518     0.25000
C782        C  0.38835992  0.01879954  0.83900066    -0.19200
C783        C  0.37241441  0.03030482  0.84070049    -0.07700
C784        C  0.35739403  0.02836983  0.82517183    -0.03700
C785        C  0.35901625  0.01498709  0.80748678    -0.09100
C786        C  0.37502573  0.00348575  0.80582464    -0.16700
H787        H  0.47661404  0.95836190  0.80062045     0.11500
H788        H  0.44844342  0.97753475  0.79367720     0.10700
H789        H  0.42624048  0.96149750  0.85915078     0.10700
H790        H  0.45417760  0.94231439  0.86645218     0.11200
H791        H  0.39961488  0.02028852  0.85138371     0.11300
H792        H  0.37186636  0.04050489  0.85439684     0.11200
H793        H  0.34784188  0.01306503  0.79515833     0.11400
H794        H  0.37588453  0.99302733  0.79237351     0.10200
C795        C  0.80377991  0.35080071  0.12270093    -0.03600
C796        C  0.79907372  0.36624119  0.10871892    -0.09400
C797        C  0.79268742  0.36335052  0.08646029    -0.17000
C798        C  0.79096190  0.34502100  0.07785364     0.25100
C799        C  0.79524905  0.32953223  0.09174593    -0.18700
C800        C  0.80153729  0.33238982  0.11409785    -0.07600
C801        C  0.78622667  0.34233556  0.05425657    -0.14100
C802        C  0.78400179  0.34140204  0.03393485    -0.13800
C803        C  0.78363200  0.34188474  0.00946332     0.25000
C804        C  0.78989384  0.32628385  0.99691055    -0.19200
C805        C  0.79199681  0.32765765  0.97328077    -0.07700
C806        C  0.78804671  0.34475023  0.96201175    -0.03700
C807        C  0.78102339  0.36009951  0.97466474    -0.09100
C808        C  0.77885142  0.35866419  0.99825915    -0.16700
H809        H  0.80043765  0.38057024  0.11489870     0.11500
H810        H  0.78948318  0.37543643  0.07579196     0.10700
H811        H  0.79413732  0.31528684  0.08515463     0.10700
H812        H  0.80518773  0.32020939  0.12434717     0.11200
H813        H  0.79380672  0.31329126  0.00547073     0.11300
H814        H  0.79757983  0.31563483  0.96408011     0.11200
H815        H  0.77766279  0.37337115  0.96643617     0.11400
H816        H  0.77407638  0.37085113  0.00785404     0.10200
C817        C  0.83908297  0.28376219  0.80081747    -0.03600
C818        C  0.85030933  0.28558330  0.78115573    -0.09400
C819        C  0.85468340  0.26982019  0.76782711    -0.17000
C820        C  0.84792925  0.25200303  0.77389705     0.25100
C821        C  0.83670293  0.24998710  0.79334176    -0.18700
C822        C  0.83229626  0.26574259  0.80672366    -0.07600
C823        C  0.85269469  0.23582156  0.76022017    -0.14100
C824        C  0.85701199  0.22246814  0.74857976    -0.13800
C825        C  0.86232232  0.20661367  0.73463446     0.25000
C826        C  0.84936527  0.19886639  0.71934889    -0.19200
C827        C  0.85445722  0.18335717  0.70598051    -0.07700
C828        C  0.87258177  0.17517593  0.70771454    -0.03700
C829        C  0.88560088  0.18333629  0.72300420    -0.09100
C830        C  0.88045724  0.19890938  0.73632762    -0.16700
H831        H  0.85589898  0.29911550  0.77605790     0.11500
H832        H  0.86341311  0.27152708  0.75281545     0.10700
H833        H  0.83138135  0.23624059  0.79818462     0.10700
H834        H  0.82353777  0.26372537  0.82160196     0.11200
H835        H  0.83530604  0.20477986  0.71778661     0.11300
H836        H  0.84415517  0.17760829  0.69424595     0.11200
H837        H  0.89977239  0.17803691  0.72489445     0.11400
H838        H  0.89064738  0.20493006  0.74801138     0.10200
C839        C  0.02424839  0.63994142  0.11050263    -0.03600
C840        C  0.02169125  0.65744171  0.09950337    -0.09400
C841        C  0.02473759  0.65915507  0.07600086    -0.17000
C842        C  0.03047421  0.64345996  0.06322278     0.25100
C843        C  0.03356824  0.62616563  0.07410714    -0.18700
C844        C  0.03053390  0.62441217  0.09754034    -0.07600
C845        C  0.03171268  0.64455595  0.03874947    -0.14100
C846        C  0.03107518  0.64406890  0.01820276    -0.13800
C847        C  0.02809911  0.64184490  0.99405900     0.25000
C848        C  0.02496046  0.62380794  0.98518618    -0.19200
C849        C  0.01983781  0.62154701  0.96235680    -0.07700
C850        C  0.01764297  0.63733943  0.94800228    -0.03700
C851        C  0.02162111  0.65538671  0.95683319    -0.09100
C852        C  0.02675709  0.65761298  0.97975275    -0.16700
H853        H  0.01682794  0.66969500  0.10883763     0.11500
H854        H  0.02216477  0.67259134  0.06771685     0.10700
H855        H  0.03793191  0.61389458  0.06438321     0.10700
H856        H  0.03291492  0.61078458  0.10535163     0.11200
H857        H  0.02595459  0.61149332  0.99609179     0.11300
H858        H  0.01725239  0.60740747  0.95617506     0.11200
H859        H  0.02011952  0.66786251  0.94634866     0.11400
H860        H  0.02910484  0.67166168  0.98646566     0.10200
C861        C  0.97102610  0.69375571  0.77978816    -0.03600
C862        C  0.97686134  0.71221367  0.78510412    -0.09400
C863        C  0.97416803  0.72692374  0.76951457    -0.17000
C864        C  0.96568340  0.72341704  0.74838289     0.25100
C865        C  0.96007290  0.70508801  0.74278077    -0.18700
C866        C  0.96274138  0.69035755  0.75832946    -0.07600
C867        C  0.96260804  0.73868966  0.73259792    -0.14100
C868        C  0.96013345  0.75190173  0.71996194    -0.13800
C869        C  0.95731856  0.76823608  0.70573105     0.25000
C870        C  0.95486248  0.76624122  0.68219486    -0.19200
C871        C  0.95193445  0.78215287  0.66847090    -0.07700
C872        C  0.95142639  0.80043199  0.67813426    -0.03700
C873        C  0.95395437  0.80212376  0.70190124    -0.09100
C874        C  0.95692043  0.78621570  0.71552425    -0.16700
H875        H  0.98321556  0.71542880  0.80141693     0.11500
H876        H  0.97857387  0.74107467  0.77402327     0.10700
H877        H  0.95355217  0.70218779  0.72643680     0.10700
H878        H  0.95826872  0.67634866  0.75344915     0.11200
H879        H  0.95505173  0.75235091  0.67444589     0.11300
H880        H  0.94970624  0.77973591  0.65054058     0.11200
H881        H  0.95344998  0.81586944  0.70998168     0.11400
H882        H  0.95876625  0.78794411  0.73375050     0.10200
C883        C  0.93234294  0.55013816  0.83572293    -0.03600
C884        C  0.91654981  0.54924862  0.82118395    -0.09400
C885        C  0.90575825  0.53273695  0.81986171    -0.17000
C886        C  0.91070100  0.51690436  0.83291239     0.25100
C887        C  0.92661797  0.51755325  0.84697521    -0.18700
C888        C  0.93735911  0.53399824  0.84836980    -0.07600
C889        C  0.89932397  0.50008211  0.83249964    -0.14100
C890        C  0.89023388  0.48573032  0.83350273    -0.13800
C891        C  0.87965264  0.46850460  0.83589217     0.25000
C892        C  0.86577895  0.46707920  0.85273534    -0.19200
C893        C  0.85570063  0.45030196  0.85543087    -0.07700
C894        C  0.85937786  0.43460264  0.84133681    -0.03700
C895        C  0.87333872  0.43621309  0.82438665    -0.09100
C896        C  0.88340937  0.45303524  0.82172929    -0.16700
H897        H  0.91224067  0.56140740  0.81127284     0.11500
H898        H  0.89344718  0.53240627  0.80891022     0.10700
H899        H  0.93063278  0.50537888  0.85708513     0.10700
H900        H  0.94956406  0.53402463  0.85945318     0.11200
H901        H  0.86277144  0.47893648  0.86384997     0.11300
H902        H  0.84502413  0.44974261  0.86856247     0.11200
H903        H  0.87669859  0.42446097  0.81332047     0.11400
H904        H  0.89419707  0.45393569  0.80870443     0.10200
loop_ 
_geom_bond_atom_site_label_1 
_geom_bond_atom_site_label_2 
_geom_bond_distance 
_geom_bond_site_symmetry_2 
_ccdc_geom_bond_type 
N1            N2   1.319       .  A
N1            C5   1.347       .  A
N1           Cu9   2.074       .  S
N2            C3   1.342       .  A
N2           Cu8   2.067       .  S
C3            C4   1.387       .  A
C3            H6   1.081       .  S
C4            C5   1.390       .  A
C4          C883   1.485       .  S
C5            H7   1.082       .  S
Cu8          N11   2.068       .  S
Cu9          N19   2.074       .  S
Cu10         N12   2.081       .  S
Cu10         N18   2.082       .  S
N11          N12   1.321       .  A
N11          C15   1.341   1_655  A
N12          C13   1.347   1_655  A
C13          C14   1.390       .  A
C13          H16   1.081       .  S
C14          C15   1.386       .  A
C14         C850   1.486       .  S
C15          H17   1.081   1_455  S
N18          N19   1.323       .  A
N18          C22   1.346       .  A
N19          C20   1.342       .  A
C20          C21   1.386       .  A
C20          H23   1.081       .  S
C21          C22   1.389       .  A
C21         C861   1.486       .  S
C22          H24   1.081       .  S
N25          N26   1.320       .  A
N25          C29   1.346       .  A
N25         Cu33   2.080       .  S
N26          C27   1.342       .  A
N26         Cu32   2.063       .  S
C27          C28   1.387       .  A
C27          H30   1.081       .  S
C28          C29   1.391       .  A
C28         C894   1.488       .  S
C29          H31   1.081       .  S
Cu32         N35   2.063       .  S
Cu33         N43   2.080       .  S
Cu34         N36   2.065       .  S
Cu34         N42   2.066       .  S
N35          N36   1.320       .  A
N35          C39   1.342       .  A
N36          C37   1.344       .  A
C37          C38   1.386       .  A
C37          H40   1.082       .  S
C38          C39   1.385       .  A
C38         C806   1.477       .  S
C39          H41   1.082       .  S
N42          N43   1.322       .  A
N42          C46   1.343       .  A
N43          C44   1.344       .  A
C44          C45   1.389       .  A
C44          H47   1.081       .  S
C45          C46   1.387       .  A
C45         C817   1.485       .  S
C46          H48   1.081       .  S
N49          N50   1.319       .  A
N49          C53   1.345       .  A
N49         Cu57   2.071       .  S
N50          C51   1.342       .  A
N50         Cu56   2.064       .  S
C51          C52   1.388       .  A
C51          H54   1.081       .  S
C52          C53   1.390       .  A
C52         C773   1.486       .  S
C53          H55   1.081       .  S
Cu56         N59   2.064       .  S
Cu57         N67   2.073       .  S
Cu58         N60   2.077       .  S
Cu58         N66   2.077       .  S
N59          N60   1.320       .  A
N59          C63   1.341       .  A
N60          C61   1.347       .  A
C61          C62   1.391       .  A
C61          H64   1.081       .  S
C62          C63   1.387       .  A
C62         C740   1.488       .  S
C63          H65   1.080       .  S
N66          N67   1.322       .  A
N66          C70   1.344       .  A
N67          C68   1.344       .  A
C68          C69   1.387       .  A
C68          H71   1.081       .  S
C69          C70   1.388       .  A
C69         C751   1.485       .  S
C70          H72   1.081       .  S
N73          N74   1.320       .  A
N73          C77   1.343       .  A
N73         Cu81   2.061       .  S
N74          C75   1.342       .  A
N74         Cu80   2.067       .  S
C75          C76   1.388       .  A
C75          H78   1.081       .  S
C76          C77   1.387       .  A
C76         C784   1.484       .  S
C77          H79   1.081       .  S
Cu80         N83   2.067       .  S
Cu81         N91   2.062       .  S
Cu82         N84   2.076       .  S
Cu82         N90   2.076       .  S
N83          N84   1.320       .  A
N83          C87   1.342       .  A
N84          C85   1.346       .  A
C85          C86   1.389       .  A
C85          H88   1.081       .  S
C86          C87   1.387       .  A
C86         C685   1.485       .  S
C87          H89   1.081       .  S
N90          N91   1.322       .  A
N90          C94   1.344       .  A
N91          C92   1.343       .  A
C92          C93   1.385       .  A
C92          H95   1.081       .  S
C93          C94   1.387       .  A
C93         C718   1.480       .  S
C94          H96   1.081       .  S
C97          C98   1.534       .  S
C97         C103   1.546       .  S
C97         C101   1.536       .  S
C97         C828   1.527       .  S
C98         H105   1.086       .  S
C98          C99   1.365       .  D
C99         C100   1.537       .  S
C99         C619   1.482       .  S
C100        C104   1.541       .  S
C100        C102   1.539       .  S
C100        H106   1.107       .  S
C101        H107   1.086       .  S
C101        C102   1.364       .  D
C102        C641   1.484       .  S
C103        H108   1.080       .  S
C103        C104   1.371       .  D
C104        C663   1.493       .  S
C109        C110   1.537       .  S
C109        C115   1.543       .  S
C109        C113   1.538       .  S
C109        C707   1.527       .  S
C110        H117   1.086       .  S
C110        C111   1.365       .  D
C111        C112   1.536       .  S
C111        C575   1.484       .  S
C112        C116   1.536       .  S
C112        C114   1.544       .  S
C112        H118   1.106       .  S
C113        H119   1.085       .  S
C113        C114   1.370       .  D
C114        C674   1.496       .  S
C115        H120   1.080   1_545  S
C115        C116   1.365       .  D
C116        C597   1.483   1_545  S
C121        C122   1.538       .  S
C121        C127   1.543       .  S
C121        C125   1.537       .  S
C121        C762   1.530       .  S
C122        H129   1.086       .  S
C122        C123   1.365       .  D
C123        C124   1.539       .  S
C123        C542   1.487       .  S
C124        C128   1.543       .  S
C124        C126   1.544       .  S
C124        H130   1.107       .  S
C125        H131   1.085       .  S
C125        C126   1.368       .  D
C126        C553   1.495       .  S
C127        H132   1.080       .  S
C127        C128   1.368       .  D
C128        C652   1.489       .  S
C133        C134   1.544       .  S
C133        C139   1.536       .  S
C133        C137   1.539       .  S
C133        C872   1.529       .  S
C134        H141   1.081       .  S
C134        C135   1.366       .  D
C135        C136   1.536       .  S
C135        C509   1.485       .  S
C136        C140   1.544       .  S
C136        C138   1.542       .  S
C136        H142   1.105       .  S
C137        H143   1.085       .  S
C137        C138   1.369       .  D
C138        C608   1.491       .  S
C139        H144   1.085       .  S
C139        C140   1.368       .  D
C140        C564   1.497       .  S
N145        N146   1.320       .  A
N145        C149   1.344       .  A
N145       Cu153   2.064       .  S
N146        C147   1.343       .  A
N146       Cu152   2.066       .  S
C147        C148   1.386       .  A
C147        H150   1.081       .  S
C148        C149   1.386       .  A
C148        C498   1.479       .  S
C149        H151   1.081       .  S
Cu152       N155   2.066       .  S
Cu153       N163   2.064       .  S
Cu154       N156   2.079       .  S
Cu154       N162   2.079       .  S
N155        N156   1.321       .  A
N155        C159   1.343       .  A
N156        C157   1.346       .  A
C157        C158   1.389       .  A
C157        H160   1.081       .  S
C158        C159   1.386       .  A
C158        C729   1.485       .  S
C159        H161   1.081       .  S
N162        N163   1.321       .  A
N162        C166   1.345       .  A
N163        C164   1.342       .  A
C164        C165   1.385       .  A
C164        H167   1.081       .  S
C165        C166   1.389       .  A
C165        C476   1.483       .  S
C166        H168   1.081       .  S
N169        N170   1.321       .  A
N169        C173   1.344       .  A
N169       Cu177   2.064       .  S
N170        C171   1.343       .  A
N170       Cu176   2.075       .  S
C171        C172   1.389       .  A
C171        H174   1.081       .  S
C172        C173   1.387       .  A
C172        C487   1.485       .  S
C173        H175   1.081       .  S
Cu176       N179   2.075       .  S
Cu177       N187   2.065       .  S
Cu178       N180   2.068       .  S
Cu178       N186   2.068       .  S
N179        N180   1.321       .  A
N179        C183   1.344       .  A
N180        C181   1.344       .  A
C181        C182   1.387       .  A
C181        H184   1.081       .  S
C182        C183   1.388       .  A
C182        C696   1.484       .  S
C183        H185   1.081       .  S
N186        N187   1.320       .  A
N186        C190   1.343       .  A
N187        C188   1.343       .  A
C188        C189   1.387       .  A
C188        H191   1.081       .  S
C189        C190   1.387       .  A
C189        C443   1.483       .  S
C190        H192   1.081       .  S
N193        N194   1.321       .  A
N193        C197   1.345       .  A
N193       Cu201   2.074       .  S
N194        C195   1.342       .  A
N194       Cu200   2.068   1_655  S
C195        C196   1.387       .  A
C195        H198   1.081       .  S
C196        C197   1.389       .  A
C196        C432   1.485       .  S
C197        H199   1.081       .  S
Cu200       N203   2.067       .  S
Cu201       N211   2.075       .  S
Cu202       N204   2.072       .  S
Cu202       N210   2.072   1_455  S
N203        N204   1.319       .  A
N203        C207   1.342       .  A
N204        C205   1.346       .  A
C205        C206   1.390       .  A
C205        H208   1.081       .  S
C206        C207   1.387       .  A
C206        C839   1.486       .  S
C207        H209   1.081       .  S
N210        N211   1.322       .  A
N210        C214   1.342       .  A
N211        C212   1.346       .  A
C212        C213   1.389       .  A
C212        H215   1.081       .  S
C213        C214   1.387       .  A
C213        C410   1.486       .  S
C214        H216   1.080       .  S
N217        N218   1.321       .  A
N217        C221   1.343       .  A
N217       Cu225   2.069       .  S
N218        C219   1.344       .  A
N218       Cu224   2.073       .  S
C219        C220   1.390       .  A
C219        H222   1.081       .  S
C220        C221   1.387       .  A
C220        C421   1.486       .  S
C221        H223   1.081       .  S
Cu224       N227   2.073       .  S
Cu225       N235   2.069       .  S
Cu226       N228   2.077       .  S
Cu226       N234   2.077       .  S
N227        N228   1.322       .  A
N227        C231   1.344       .  A
N228        C229   1.345       .  A
C229        C230   1.386       .  A
C229        H232   1.082       .  S
C230        C231   1.386       .  A
C230        C795   1.481       .  S
C231        H233   1.082       .  S
N234        N235   1.321       .  A
N234        C238   1.345       .  A
N235        C236   1.345       .  A
C236        C237   1.386       .  A
C236        H239   1.082       .  S
C237        C238   1.387       .  A
C237        C377   1.482       .  S
C238        H240   1.082       .  S
C241        C242   1.537       .  S
C241        C247   1.536       .  S
C241        C245   1.543       .  S
C241        C388   1.530       .  S
C242        H249   1.086       .  S
C242        C243   1.367       .  D
C243        C244   1.541       .  S
C243        C366   1.490       .  S
C244        C248   1.542       .  S
C244        C246   1.541       .  S
C244        H250   1.106       .  S
C245        H251   1.080       .  S
C245        C246   1.367       .  D
C246        C344   1.491       .  S
C247        H252   1.085       .  S
C247        C248   1.368       .  D
C248        C630   1.489       .  S
C253        C254   1.534       .  S
C253        C259   1.539       .  S
C253        C257   1.541       .  S
C253        C454   1.527       .  S
C254        H261   1.086       .  S
C254        C255   1.366       .  D
C255        C256   1.543       .  S
C255        C322   1.492   1_545  S
C256        C260   1.539       .  S
C256        C258   1.545       .  S
C256        H262   1.107       .  S
C257        H263   1.080       .  S
C257        C258   1.369       .  D
C258        C355   1.493       .  S
C259        H264   1.086       .  S
C259        C260   1.366       .  D
C260        C586   1.485       .  S
C265        C266   1.545       .  S
C265        C271   1.536       .  S
C265        C269   1.540       .  S
C265        C399   1.528       .  S
C266        H273   1.080       .  S
C266        C267   1.367       .  D
C267        C268   1.540       .  S
C267        C289   1.490       .  S
C268        C272   1.533       .  S
C268        C270   1.543       .  S
C268        H274   1.106       .  S
C269        H275   1.085       .  S
C269        C270   1.370       .  D
C270        C311   1.494       .  S
C271        H276   1.086       .  S
C271        C272   1.363       .  D
C272        C520   1.480       .  S
C277        C278   1.542       .  S
C277        C283   1.537       .  S
C277        C281   1.536       .  S
C277        C465   1.528       .  S
C278        H285   1.080       .  S
C278        C279   1.366       .  D
C279        C280   1.542       .  S
C279        C333   1.488       .  S
C280        C284   1.540       .  S
C280        C282   1.545       .  S
C280        H286   1.107       .  S
C281        H287   1.085       .  S
C281        C282   1.369       .  D
C282        C300   1.496       .  S
C283        H288   1.086       .  S
C283        C284   1.366       .  D
C284        C531   1.487       .  S
C289        C290   1.410       .  A
C289        C294   1.406       .  A
C290        C291   1.399       .  A
C290        H303   1.082       .  S
C291        C292   1.399       .  A
C291        H304   1.083       .  S
C292        C293   1.398       .  A
C292        C295   1.439       .  S
C293        C294   1.396       .  A
C293        H305   1.084       .  S
C294        H306   1.077       .  S
C295        C296   1.206       .  T
C296        C297   1.439       .  S
C297        C298   1.398       .  A
C297        C302   1.397       .  A
C298        C299   1.398       .  A
C298        H307   1.083       .  S
C299        C300   1.408       .  A
C299        H308   1.079       .  S
C300        C301   1.412       .  A
C301        C302   1.398       .  A
C301        H309   1.081       .  S
C302        H310   1.084       .  S
C311        C312   1.410       .  A
C311        C316   1.407       .  A
C312        C313   1.401       .  A
C312        H325   1.082       .  S
C313        C314   1.400       .  A
C313        H326   1.083   1_655  S
C314        C315   1.397       .  A
C314        C317   1.440       .  S
C315        C316   1.396       .  A
C315        H327   1.084       .  S
C316        H328   1.077       .  S
C317        C318   1.206   1_655  T
C318        C319   1.440       .  S
C319        C320   1.399       .  A
C319        C324   1.398       .  A
C320        C321   1.398       .  A
C320        H329   1.084   1_455  S
C321        C322   1.406       .  A
C321        H330   1.077   1_565  S
C322        C323   1.410       .  A
C323        C324   1.399       .  A
C323        H331   1.082       .  S
C324        H332   1.083       .  S
C333        C334   1.404       .  A
C333        C338   1.409   1_565  A
C334        C335   1.397   1_565  A
C334        H347   1.080       .  S
C335        C336   1.399       .  A
C335        H348   1.083       .  S
C336        C337   1.399       .  A
C336        C339   1.439       .  S
C337        C338   1.398       .  A
C337        H349   1.084       .  S
C338        H350   1.082       .  S
C339        C340   1.206       .  T
C340        C341   1.439       .  S
C341        C342   1.399       .  A
C341        C346   1.398       .  A
C342        C343   1.400       .  A
C342        H351   1.083       .  S
C343        C344   1.409       .  A
C343        H352   1.082       .  S
C344        C345   1.405       .  A
C345        C346   1.397       .  A
C345        H353   1.076       .  S
C346        H354   1.084       .  S
C355        C356   1.411       .  A
C355        C360   1.406       .  A
C356        C357   1.399       .  A
C356        H369   1.082       .  S
C357        C358   1.399   1_455  A
C357        H370   1.083       .  S
C358        C359   1.398       .  A
C358        C361   1.440       .  S
C359        C360   1.398   1_655  A
C359        H371   1.084       .  S
C360        H372   1.077       .  S
C361        C362   1.206       .  T
C362        C363   1.440       .  S
C363        C364   1.398       .  A
C363        C368   1.399       .  A
C364        C365   1.398       .  A
C364        H373   1.084       .  S
C365        C366   1.405       .  A
C365        H374   1.077       .  S
C366        C367   1.409       .  A
C367        C368   1.400       .  A
C367        H375   1.082       .  S
C368        H376   1.083       .  S
C377        C378   1.407       .  A
C377        C382   1.407       .  A
C378        C379   1.399       .  A
C378        H391   1.082       .  S
C379        C380   1.400       .  A
C379        H392   1.083       .  S
C380        C381   1.400       .  A
C380        C383   1.441       .  S
C381        C382   1.399       .  A
C381        H393   1.084       .  S
C382        H394   1.082       .  S
C383        C384   1.207       .  T
C384        C385   1.441       .  S
C385        C386   1.398       .  A
C385        C390   1.398       .  A
C386        C387   1.398       .  A
C386        H395   1.083       .  S
C387        C388   1.411       .  A
C387        H396   1.083       .  S
C388        C389   1.413       .  A
C389        C390   1.399       .  A
C389        H397   1.076       .  S
C390        H398   1.084       .  S
C399        C400   1.411       .  A
C399        C404   1.413       .  A
C400        C401   1.398       .  A
C400        H413   1.083       .  S
C401        C402   1.397       .  A
C401        H414   1.083       .  S
C402        C403   1.397       .  A
C402        C405   1.438       .  S
C403        C404   1.398       .  A
C403        H415   1.084       .  S
C404        H416   1.076       .  S
C405        C406   1.205       .  T
C406        C407   1.438       .  S
C407        C408   1.399       .  A
C407        C412   1.397       .  A
C408        C409   1.400       .  A
C408        H417   1.083       .  S
C409        C410   1.409       .  A
C409        H418   1.081       .  S
C410        C411   1.409       .  A
C411        C412   1.395       .  A
C411        H419   1.080       .  S
C412        H420   1.084       .  S
C421        C422   1.410       .  A
C421        C426   1.407       .  A
C422        C423   1.399       .  A
C422        H435   1.081       .  S
C423        C424   1.398       .  A
C423        H436   1.083       .  S
C424        C425   1.398       .  A
C424        C427   1.438       .  S
C425        C426   1.396       .  A
C425        H437   1.084       .  S
C426        H438   1.081       .  S
C427        C428   1.205       .  T
C428        C429   1.438       .  S
C429        C430   1.398       .  A
C429        C434   1.399       .  A
C430        C431   1.397       .  A
C430        H439   1.084       .  S
C431        C432   1.408       .  A
C431        H440   1.081       .  S
C432        C433   1.408       .  A
C433        C434   1.399       .  A
C433        H441   1.081       .  S
C434        H442   1.084       .  S
C443        C444   1.408       .  A
C443        C448   1.408       .  A
C444        C445   1.397       .  A
C444        H457   1.081       .  S
C445        C446   1.398       .  A
C445        H458   1.084       .  S
C446        C447   1.398       .  A
C446        C449   1.436       .  S
C447        C448   1.397       .  A
C447        H459   1.084       .  S
C448        H460   1.081       .  S
C449        C450   1.204       .  T
C450        C451   1.436       .  S
C451        C452   1.397       .  A
C451        C456   1.396       .  A
C452        C453   1.398       .  A
C452        H461   1.084       .  S
C453        C454   1.413       .  A
C453        H462   1.077       .  S
C454        C455   1.410       .  A
C455        C456   1.395       .  A
C455        H463   1.083       .  S
C456        H464   1.084       .  S
C465        C466   1.413       .  A
C465        C470   1.411       .  A
C466        C467   1.398       .  A
C466        H479   1.076       .  S
C467        C468   1.397       .  A
C467        H480   1.084       .  S
C468        C469   1.397       .  A
C468        C471   1.438       .  S
C469        C470   1.397       .  A
C469        H481   1.084       .  S
C470        H482   1.083       .  S
C471        C472   1.205       .  T
C472        C473   1.438       .  S
C473        C474   1.399       .  A
C473        C478   1.398       .  A
C474        C475   1.397       .  A
C474        H483   1.084       .  S
C475        C476   1.407       .  A
C475        H484   1.081       .  S
C476        C477   1.409       .  A
C477        C478   1.398       .  A
C477        H485   1.082       .  S
C478        H486   1.084       .  S
C487        C488   1.407       .  A
C487        C492   1.410   1_545  A
C488        C489   1.395       .  A
C488        H501   1.081       .  S
C489        C490   1.397   1_545  A
C489        H502   1.084       .  S
C490        C491   1.398       .  A
C490        C493   1.436       .  S
C491        C492   1.399       .  A
C491        H503   1.083       .  S
C492        H504   1.081       .  S
C493        C494   1.204       .  T
C494        C495   1.436       .  S
C495        C496   1.399       .  A
C495        C500   1.399       .  A
C496        C497   1.397       .  A
C496        H505   1.084       .  S
C497        C498   1.407       .  A
C497        H506   1.082       .  S
C498        C499   1.407       .  A
C499        C500   1.396       .  A
C499        H507   1.082       .  S
C500        H508   1.084       .  S
C509        C510   1.407       .  A
C509        C514   1.406       .  A
C510        C511   1.398       .  A
C510        H523   1.083       .  S
C511        C512   1.399       .  A
C511        H524   1.084       .  S
C512        C513   1.399       .  A
C512        C515   1.438       .  S
C513        C514   1.398       .  A
C513        H525   1.084       .  S
C514        H526   1.083       .  S
C515        C516   1.205       .  T
C516        C517   1.438       .  S
C517        C518   1.399       .  A
C517        C522   1.400       .  A
C518        C519   1.397       .  A
C518        H527   1.083       .  S
C519        C520   1.405       .  A
C519        H528   1.083       .  S
C520        C521   1.405       .  A
C521        C522   1.398       .  A
C521        H529   1.083       .  S
C522        H530   1.083       .  S
C531        C532   1.407       .  A
C531        C536   1.406       .  A
C532        C533   1.400       .  A
C532        H545   1.083       .  S
C533        C534   1.400       .  A
C533        H546   1.083       .  S
C534        C535   1.401       .  A
C534        C537   1.444       .  S
C535        C536   1.400       .  A
C535        H547   1.083       .  S
C536        H548   1.083       .  S
C537        C538   1.209       .  T
C538        C539   1.444       .  S
C539        C540   1.401       .  A
C539        C544   1.401       .  A
C540        C541   1.400       .  A
C540        H549   1.083       .  S
C541        C542   1.406       .  A
C541        H550   1.083       .  S
C542        C543   1.407       .  A
C543        C544   1.400       .  A
C543        H551   1.083       .  S
C544        H552   1.083       .  S
C553        C554   1.411       .  A
C553        C558   1.407       .  A
C554        C555   1.399       .  A
C554        H567   1.082       .  S
C555        C556   1.398       .  A
C555        H568   1.083       .  S
C556        C557   1.399       .  A
C556        C559   1.442       .  S
C557        C558   1.399       .  A
C557        H569   1.084       .  S
C558        H570   1.077       .  S
C559        C560   1.207       .  T
C560        C561   1.442       .  S
C561        C562   1.397       .  A
C561        C566   1.399       .  A
C562        C563   1.397       .  A
C562        H571   1.084       .  S
C563        C564   1.408       .  A
C563        H572   1.075       .  S
C564        C565   1.411       .  A
C565        C566   1.401       .  A
C565        H573   1.081       .  S
C566        H574   1.083       .  S
C575        C576   1.406       .  A
C575        C580   1.406       .  A
C576        C577   1.399       .  A
C576        H589   1.083       .  S
C577        C578   1.400       .  A
C577        H590   1.083       .  S
C578        C579   1.399       .  A
C578        C581   1.440       .  S
C579        C580   1.397       .  A
C579        H591   1.084       .  S
C580        H592   1.083   1_545  S
C581        C582   1.206       .  T
C582        C583   1.440       .  S
C583        C584   1.400       .  A
C583        C588   1.400       .  A
C584        C585   1.399       .  A
C584        H593   1.083       .  S
C585        C586   1.406       .  A
C585        H594   1.083       .  S
C586        C587   1.407       .  A
C587        C588   1.399       .  A
C587        H595   1.083       .  S
C588        H596   1.083       .  S
C597        C598   1.404       .  A
C597        C602   1.407       .  A
C598        C599   1.398       .  A
C598        H611   1.080       .  S
C599        C600   1.400       .  A
C599        H612   1.084       .  S
C600        C601   1.398       .  A
C600        C603   1.437       .  S
C601        C602   1.397       .  A
C601        H613   1.083       .  S
C602        H614   1.083       .  S
C603        C604   1.204       .  T
C604        C605   1.437   1_455  S
C605        C606   1.400   1_655  A
C605        C610   1.396       .  A
C606        C607   1.401   1_455  A
C606        H615   1.083       .  S
C607        C608   1.410       .  A
C607        H616   1.082       .  S
C608        C609   1.406       .  A
C609        C610   1.394       .  A
C609        H617   1.075       .  S
C610        H618   1.084       .  S
C619        C620   1.407       .  A
C619        C624   1.406       .  A
C620        C621   1.396       .  A
C620        H633   1.083       .  S
C621        C622   1.398       .  A
C621        H634   1.084       .  S
C622        C623   1.399       .  A
C622        C625   1.435       .  S
C623        C624   1.397       .  A
C623        H635   1.084       .  S
C624        H636   1.083       .  S
C625        C626   1.203       .  T
C626        C627   1.436       .  S
C627        C628   1.397       .  A
C627        C632   1.398       .  A
C628        C629   1.396       .  A
C628        H637   1.084       .  S
C629        C630   1.407       .  A
C629        H638   1.081       .  S
C630        C631   1.409       .  A
C631        C632   1.398       .  A
C631        H639   1.082       .  S
C632        H640   1.084       .  S
C641        C642   1.407       .  A
C641        C646   1.404       .  A
C642        C643   1.399       .  A
C642        H655   1.083       .  S
C643        C644   1.399       .  A
C643        H656   1.083       .  S
C644        C645   1.399       .  A
C644        C647   1.438       .  S
C645        C646   1.396       .  A
C645        H657   1.084       .  S
C646        H658   1.078       .  S
C647        C648   1.205       .  T
C648        C649   1.438       .  S
C649        C650   1.397       .  A
C649        C654   1.399       .  A
C650        C651   1.396   1_545  A
C650        H659   1.084       .  S
C651        C652   1.405       .  A
C651        H660   1.077       .  S
C652        C653   1.409   1_565  A
C653        C654   1.400       .  A
C653        H661   1.082       .  S
C654        H662   1.083       .  S
C663        C664   1.407       .  A
C663        C668   1.410       .  A
C664        C665   1.397       .  A
C664        H677   1.077       .  S
C665        C666   1.398       .  A
C665        H678   1.084       .  S
C666        C667   1.399       .  A
C666        C669   1.440       .  S
C667        C668   1.400       .  A
C667        H679   1.083       .  S
C668        H680   1.082       .  S
C669        C670   1.206       .  T
C670        C671   1.440   1_655  S
C671        C672   1.398       .  A
C671        C676   1.397   1_455  A
C672        C673   1.400       .  A
C672        H681   1.083       .  S
C673        C674   1.411       .  A
C673        H682   1.081       .  S
C674        C675   1.409       .  A
C675        C676   1.397   1_455  A
C675        H683   1.078       .  S
C676        H684   1.084       .  S
C685        C686   1.408       .  A
C685        C690   1.408       .  A
C686        C687   1.400       .  A
C686        H699   1.081       .  S
C687        C688   1.400       .  A
C687        H700   1.083       .  S
C688        C689   1.398       .  A
C688        C691   1.439   1_556  S
C689        C690   1.397       .  A
C689        H701   1.084       .  S
C690        H702   1.082       .  S
C691        C692   1.206       .  T
C692        C693   1.440       .  S
C693        C694   1.399       .  A
C693        C698   1.399       .  A
C694        C695   1.398       .  A
C694        H703   1.084       .  S
C695        C696   1.407       .  A
C695        H704   1.082       .  S
C696        C697   1.408       .  A
C697        C698   1.399       .  A
C697        H705   1.082       .  S
C698        H706   1.083       .  S
C707        C708   1.410       .  A
C707        C712   1.413       .  A
C708        C709   1.397       .  A
C708        H721   1.083       .  S
C709        C710   1.397       .  A
C709        H722   1.083       .  S
C710        C711   1.397       .  A
C710        C713   1.436       .  S
C711        C712   1.397       .  A
C711        H723   1.084       .  S
C712        H724   1.076   1_545  S
C713        C714   1.204       .  T
C714        C715   1.436       .  S
C715        C716   1.398       .  A
C715        C720   1.399       .  A
C716        C717   1.396       .  A
C716        H725   1.084       .  S
C717        C718   1.406       .  A
C717        H726   1.082       .  S
C718        C719   1.408       .  A
C719        C720   1.398       .  A
C719        H727   1.082       .  S
C720        H728   1.084       .  S
C729        C730   1.408       .  A
C729        C734   1.408       .  A
C730        C731   1.399       .  A
C730        H743   1.081       .  S
C731        C732   1.399       .  A
C731        H744   1.083       .  S
C732        C733   1.399       .  A
C732        C735   1.439       .  S
C733        C734   1.398       .  A
C733        H745   1.084       .  S
C734        H746   1.082       .  S
C735        C736   1.206       .  T
C736        C737   1.439       .  S
C737        C738   1.396       .  A
C737        C742   1.400   1_554  A
C738        C739   1.395   1_554  A
C738        H747   1.084       .  S
C739        C740   1.409       .  A
C739        H748   1.080       .  S
C740        C741   1.409       .  A
C741        C742   1.402       .  A
C741        H749   1.081       .  S
C742        H750   1.083   1_556  S
C751        C752   1.409       .  A
C751        C756   1.408       .  A
C752        C753   1.399       .  A
C752        H765   1.082       .  S
C753        C754   1.400       .  A
C753        H766   1.084       .  S
C754        C755   1.398       .  A
C754        C757   1.440       .  S
C755        C756   1.397       .  A
C755        H767   1.084       .  S
C756        H768   1.081       .  S
C757        C758   1.206       .  T
C758        C759   1.440       .  S
C759        C760   1.398       .  A
C759        C764   1.397       .  A
C760        C761   1.399       .  A
C760        H769   1.084       .  S
C761        C762   1.412       .  A
C761        H770   1.077       .  S
C762        C763   1.411       .  A
C763        C764   1.397       .  A
C763        H771   1.083       .  S
C764        H772   1.083       .  S
C773        C774   1.409       .  A
C773        C778   1.409       .  A
C774        C775   1.399       .  A
C774        H787   1.081       .  S
C775        C776   1.398       .  A
C775        H788   1.083       .  S
C776        C777   1.397       .  A
C776        C779   1.436       .  S
C777        C778   1.396       .  A
C777        H789   1.084       .  S
C778        H790   1.081       .  S
C779        C780   1.203       .  T
C780        C781   1.435   1_565  S
C781        C782   1.397       .  A
C781        C786   1.398       .  A
C782        C783   1.395       .  A
C782        H791   1.084       .  S
C783        C784   1.407       .  A
C783        H792   1.081       .  S
C784        C785   1.409       .  A
C785        C786   1.398       .  A
C785        H793   1.081       .  S
C786        H794   1.083   1_545  S
C795        C796   1.406       .  A
C795        C800   1.408       .  A
C796        C797   1.396       .  A
C796        H809   1.082       .  S
C797        C798   1.399       .  A
C797        H810   1.084       .  S
C798        C799   1.399       .  A
C798        C801   1.436       .  S
C799        C800   1.399       .  A
C799        H811   1.084       .  S
C800        H812   1.082       .  S
C801        C802   1.204       .  T
C802        C803   1.436       .  S
C803        C804   1.399   1_554  A
C803        C808   1.399   1_554  A
C804        C805   1.397       .  A
C804        H813   1.084   1_556  S
C805        C806   1.407       .  A
C805        H814   1.082       .  S
C806        C807   1.406       .  A
C807        C808   1.396       .  A
C807        H815   1.082       .  S
C808        H816   1.084   1_556  S
C817        C818   1.408       .  A
C817        C822   1.409       .  A
C818        C819   1.397       .  A
C818        H831   1.081       .  S
C819        C820   1.398       .  A
C819        H832   1.084       .  S
C820        C821   1.399       .  A
C820        C823   1.438       .  S
C821        C822   1.399       .  A
C821        H833   1.084       .  S
C822        H834   1.081       .  S
C823        C824   1.205       .  T
C824        C825   1.438       .  S
C825        C826   1.396       .  A
C825        C830   1.398       .  A
C826        C827   1.396       .  A
C826        H835   1.084       .  S
C827        C828   1.411       .  A
C827        H836   1.083       .  S
C828        C829   1.411       .  A
C829        C830   1.399       .  A
C829        H837   1.077       .  S
C830        H838   1.084       .  S
C839        C840   1.409       .  A
C839        C844   1.408       .  A
C840        C841   1.401       .  A
C840        H853   1.081       .  S
C841        C842   1.400       .  A
C841        H854   1.083       .  S
C842        C843   1.398       .  A
C842        C845   1.440       .  S
C843        C844   1.397       .  A
C843        H855   1.084       .  S
C844        H856   1.081       .  S
C845        C846   1.206       .  T
C846        C847   1.440   1_554  S
C847        C848   1.398       .  A
C847        C852   1.400       .  A
C848        C849   1.396       .  A
C848        H857   1.084       .  S
C849        C850   1.408       .  A
C849        H858   1.081       .  S
C850        C851   1.408       .  A
C851        C852   1.401       .  A
C851        H859   1.082       .  S
C852        H860   1.083       .  S
C861        C862   1.407       .  A
C861        C866   1.409       .  A
C862        C863   1.399       .  A
C862        H875   1.081       .  S
C863        C864   1.399       .  A
C863        H876   1.084       .  S
C864        C865   1.398       .  A
C864        C867   1.440       .  S
C865        C866   1.398       .  A
C865        H877   1.084       .  S
C866        H878   1.081       .  S
C867        C868   1.206       .  T
C868        C869   1.440       .  S
C869        C870   1.398       .  A
C869        C874   1.397       .  A
C870        C871   1.400       .  A
C870        H879   1.084       .  S
C871        C872   1.413       .  A
C871        H880   1.077       .  S
C872        C873   1.410       .  A
C873        C874   1.397       .  A
C873        H881   1.083       .  S
C874        H882   1.084       .  S
C883        C884   1.408       .  A
C883        C888   1.407       .  A
C884        C885   1.402       .  A
C884        H897   1.082       .  S
C885        C886   1.401       .  A
C885        H898   1.083       .  S
C886        C887   1.398       .  A
C886        C889   1.441       .  S
C887        C888   1.396       .  A
C887        H899   1.084       .  S
C888        H900   1.082       .  S
C889        C890   1.207       .  T
C890        C891   1.442       .  S
C891        C892   1.398       .  A
C891        C896   1.400       .  A
C892        C893   1.398       .  A
C892        H901   1.084       .  S
C893        C894   1.409       .  A
C893        H902   1.081       .  S
C894        C895   1.408       .  A
C895        C896   1.400       .  A
C895        H903   1.081       .  S
C896        H904   1.083       .  S
