geometry optimzed in LAMMPS
_audit_creation_date              2020-11-30 
_audit_creation_method            'lammps2cif' 
_symmetry_space_group_name_H-M    'P1' 
_symmetry_Int_Tables_number       1 
_symmetry_cell_setting            triclinic 
loop_ 
_symmetry_equiv_pos_as_xyz 
  x,y,z 
_cell_length_a                    55.42674763 
_cell_length_b                    55.188531056254845 
_cell_length_c                    33.27965110464117 
_cell_angle_alpha                 89.92060006505832 
_cell_angle_beta                  90.07091620237922 
_cell_angle_gamma                 120.2322229157907 
loop_ 
_atom_site_label 
_atom_site_type_symbol 
_atom_site_fract_x 
_atom_site_fract_y 
_atom_site_fract_z 
_atom_site_charge 
O1          O  0.58708164  0.38971691  0.44357755    -0.89300
C2          C  0.61848985  0.44361569  0.53650400     0.86700
Mg3        Mg  0.59288398  0.40282914  0.38271395     1.58100
O4          O  0.54621837  0.41242366  0.52745837    -0.89100
O5          O  0.55241697  0.36478487  0.48510858    -0.76400
C6          C  0.55046911  0.49541194  0.37640313     0.91700
O7          O  0.64159220  0.45065656  0.44832871    -0.76200
O8          O  0.56653593  0.48845679  0.35912955    -0.83700
Mg9        Mg  0.62345939  0.40794223  0.48047725     1.58000
C10         C  0.50864430  0.46054620  0.53502889     0.91700
O11         O  0.60813857  0.36564372  0.51010603    -0.82000
H12         H  0.50826064  0.37821947  0.52861513    -0.07300
C13         C  0.58958991  0.49004592  0.47395593     0.86600
O14         O  0.54801294  0.39595720  0.38232536    -0.76500
O15         O  0.60309648  0.42008081  0.52218359    -0.89300
O16         O  0.52531483  0.45521281  0.55432068    -0.82100
C17         C  0.57124997  0.42647421  0.62852400     0.91800
C18         C  0.59435694  0.35123777  0.54027073     0.91600
Mg19       Mg  0.53024511  0.44760498  0.45049244     1.58000
O20         O  0.54077884  0.48665486  0.41161464    -0.82000
O21         O  0.51291652  0.40692623  0.48664668    -0.76200
O22         O  0.57375415  0.40797981  0.60883750    -0.82100
O23         O  0.64745167  0.39690230  0.43864737    -0.83800
O24         O  0.57984546  0.44425244  0.32063656    -0.82100
C25         C  0.52190599  0.39853887  0.51538434     0.86100
O26         O  0.55063652  0.43370337  0.40829802    -0.89200
O27         O  0.56879213  0.46773461  0.48402485    -0.89400
O28         O  0.60046990  0.49328599  0.43935082    -0.76400
Mg29       Mg  0.56411216  0.38792179  0.54562639     1.58000
O30         O  0.56521099  0.44341206  0.61134465    -0.83800
H31         H  0.55418453  0.35282364  0.42810109    -0.07500
O32         O  0.61016452  0.44539377  0.40349884    -0.89100
H33         H  0.64679663  0.48104724  0.40890166    -0.07300
H34         H  0.51462595  0.40153033  0.38843290    -0.07500
C35         C  0.63339144  0.45980383  0.41932336     0.86000
C36         C  0.56447539  0.36841125  0.45131575     0.86600
C37         C  0.53682435  0.41024656  0.39280327     0.86700
H38         H  0.59916898  0.50698032  0.49547098    -0.07500
O39         O  0.60969742  0.46034099  0.54403084    -0.76500
Mg40       Mg  0.58882787  0.46634904  0.38205889     1.58000
H41         H  0.64038333  0.45067378  0.54077585    -0.07500
C42         C  0.65239842  0.40148175  0.40146201     0.91700
O43         O  0.59630010  0.41496564  0.31717854    -0.83700
C44         C  0.58608678  0.42854668  0.30045066     0.91700
O45         O  0.58109333  0.35916201  0.56297121    -0.83700
Mg46       Mg  0.56640819  0.45554859  0.54591234     1.58200
O47         O  0.63696785  0.40669079  0.37861262    -0.82100
O48         O  0.50873420  0.46157782  0.49665283    -0.83800
O49         O  0.58769771  0.39085051  0.94146465    -0.89300
C50         C  0.61678415  0.44180361  0.03769698     0.86700
Mg51       Mg  0.59428270  0.40604359  0.88158999     1.58100
O52         O  0.54457188  0.40990271  0.02631980    -0.89100
O53         O  0.55248169  0.36416637  0.98117197    -0.76400
C54         C  0.54984160  0.49685678  0.87981225     0.91700
O55         O  0.64132112  0.45209780  0.95036135    -0.76200
O56         O  0.56666950  0.49078690  0.86295012    -0.83700
Mg57       Mg  0.62348588  0.40846661  0.97961141     1.58000
C58         C  0.50604549  0.45727531  0.03692455     0.91700
O59         O  0.60884753  0.36536644  0.00674174    -0.82000
H60         H  0.50682907  0.37541041  0.02486916    -0.07300
C61         C  0.58787421  0.48938331  0.97793801     0.86600
O62         O  0.54911266  0.39837271  0.88062000    -0.76500
O63         O  0.60195691  0.41864039  0.02196863    -0.89300
O64         O  0.52225511  0.45118985  0.05603169    -0.82100
C65         C  0.56803651  0.42102875  0.12827917     0.91800
C66         C  0.59477233  0.35017400  0.03620213     0.91600
Mg67       Mg  0.52916317  0.44723845  0.95151957     1.58000
O68         O  0.53954174  0.48731568  0.91455611    -0.82000
O69         O  0.51185085  0.40549416  0.98513529    -0.76200
O70         O  0.57123194  0.40330212  0.10770189    -0.82100
O71         O  0.64863446  0.39966365  0.93709846    -0.83800
O72         O  0.58131592  0.44876395  0.82162340    -0.82100
C73         C  0.52052030  0.39622846  0.01317527     0.86100
O74         O  0.55059302  0.43505133  0.90857188    -0.89200
O75         O  0.56709398  0.46663022  0.98646238    -0.89400
O76         O  0.59938207  0.49387380  0.94362193    -0.76400
Mg77       Mg  0.56284563  0.38538918  0.04310452     1.58000
O78         O  0.56184873  0.43810550  0.11190697    -0.83800
H79         H  0.55551880  0.35420954  0.92347611    -0.07500
O80         O  0.61050556  0.44773992  0.90508114    -0.89100
H81         H  0.64663873  0.48356377  0.91303658    -0.07300
H82         H  0.51518922  0.40305363  0.88680466    -0.07500
C83         C  0.63336943  0.46193655  0.92195788     0.86000
C84         C  0.56517962  0.36907618  0.94771470     0.86600
C85         C  0.53736184  0.41199944  0.89176427     0.86700
H86         H  0.59688300  0.50561815  0.00056064    -0.07500
O87         O  0.60745673  0.45796989  0.04602933    -0.76500
Mg88       Mg  0.58906694  0.46877870  0.88464691     1.58000
H89         H  0.63867901  0.44909316  0.04250924    -0.07500
C90         C  0.65408773  0.40548886  0.90026146     0.91700
O91         O  0.59879263  0.42040696  0.81719708    -0.83700
C92         C  0.58846981  0.43400005  0.80087055     0.91700
O93         O  0.58049307  0.35700669  0.05862683    -0.83700
Mg94       Mg  0.56384199  0.45236717  0.04749674     1.58200
O95         O  0.63870959  0.41092705  0.87770724    -0.82100
O96         O  0.50680680  0.45945081  0.99863772    -0.83800
O97         O  0.41351821  0.60968029  0.19235815    -0.89300
C98         C  0.38448122  0.55766693  0.28783477     0.86700
Mg99       Mg  0.40706118  0.59522191  0.13213646     1.58100
O100        O  0.45671311  0.58968415  0.27647175    -0.89100
O101        O  0.44876275  0.63586003  0.23240010    -0.76400
C102        C  0.45091075  0.50364760  0.12884133     0.91700
O103        O  0.35979742  0.54824803  0.20013183    -0.76200
O104        O  0.43434608  0.51003287  0.11172444    -0.83700
Mg105      Mg  0.37766908  0.59146969  0.23041702     1.58000
C106        C  0.49512750  0.54213944  0.28532945     0.91700
O107        O  0.39236769  0.63406215  0.25859865    -0.82000
H108        H  0.49443792  0.62421667  0.27523686    -0.07300
C109        C  0.41314822  0.51078755  0.22687176     0.86600
O110        O  0.45216041  0.60269298  0.13115863    -0.76500
O111        O  0.39930946  0.58088418  0.27222017    -0.89300
O112        O  0.47900169  0.54810167  0.30482665    -0.82100
C113        C  0.43302106  0.57740649  0.37847502     0.91800
C114        C  0.40654436  0.64921120  0.28799302     0.91600
Mg115      Mg  0.47188204  0.55301564  0.20071248     1.58000
O116        O  0.46116849  0.51311890  0.16359056    -0.82000
O117        O  0.48935296  0.59450357  0.23488445    -0.76200
O118        O  0.42987694  0.59526450  0.35805432    -0.82100
O119        O  0.35243547  0.60085994  0.18841736    -0.83800
O120        O  0.42013026  0.55302675  0.07162649    -0.82100
C121        C  0.48073496  0.60349619  0.26327620     0.86100
O122        O  0.45053226  0.56566774  0.15830186    -0.89200
O123        O  0.43400812  0.53340788  0.23568124    -0.89400
O124        O  0.40165217  0.50663703  0.19255305    -0.76400
Mg125      Mg  0.43840331  0.61397989  0.29391387     1.58000
O126        O  0.43946116  0.56058098  0.36195932    -0.83800
H127        H  0.44572974  0.64652378  0.17504604    -0.07500
O128        O  0.39070777  0.55320461  0.15475169    -0.89100
H129        H  0.35450577  0.51732194  0.16184140    -0.07300
H130        H  0.48600391  0.59783144  0.13700263    -0.07500
C131        C  0.36778412  0.53880707  0.17134023     0.86000
C132        C  0.43605190  0.63136677  0.19897341     0.86600
C133        C  0.46383137  0.58888724  0.14191093     0.86700
H134        H  0.40405737  0.49436808  0.24925836    -0.07500
O135        O  0.39380870  0.54146496  0.29601929    -0.76500
Mg136      Mg  0.41210716  0.53222464  0.13396206     1.58000
H137        H  0.36260354  0.55039152  0.29274470    -0.07500
C138        C  0.34723620  0.59594416  0.15133030     0.91700
O139        O  0.40284116  0.58158099  0.06730150    -0.83700
C140        C  0.41326186  0.56809221  0.05097278     0.91700
O141        O  0.42088088  0.64233670  0.31029968    -0.83700
Mg142      Mg  0.43741531  0.54702660  0.29702528     1.58200
O143        O  0.36269232  0.59083903  0.12844099    -0.82100
O144        O  0.49427017  0.54030172  0.24703460    -0.83800
O145        O  0.41157399  0.60826200  0.69287219    -0.89300
C146        C  0.38209001  0.55495252  0.78720820     0.86700
Mg147      Mg  0.40618477  0.59498526  0.63217906     1.58100
O148        O  0.45449039  0.58829423  0.77717588    -0.89100
O149        O  0.44604475  0.63440030  0.73400474    -0.76400
C150        C  0.45215409  0.50528985  0.62783957     0.91700
O151        O  0.35826501  0.54640199  0.69871174    -0.76200
O152        O  0.43539458  0.51146247  0.61087093    -0.83700
Mg153      Mg  0.37533806  0.58912116  0.73011029     1.58000
C154        C  0.49430863  0.54229625  0.78637569     0.91700
O155        O  0.38940767  0.63138081  0.75888712    -0.82000
H156        H  0.49190952  0.62323563  0.77745727    -0.07300
C157        C  0.41252248  0.51008366  0.72576300     0.86600
O158        O  0.45145372  0.60300191  0.63214962    -0.76500
O159        O  0.39678529  0.57836518  0.77207038    -0.89300
O160        O  0.47764417  0.54768122  0.80545484    -0.82100
C161        C  0.43040731  0.57495728  0.87873047     0.91800
C162        C  0.40298054  0.64603347  0.78897807     0.91600
Mg163      Mg  0.47144920  0.55330918  0.70133002     1.58000
O164        O  0.46188829  0.51419174  0.66301441    -0.82000
O165        O  0.48796004  0.59430026  0.73647003    -0.76200
O166        O  0.42676238  0.59251855  0.85843968    -0.82100
O167        O  0.35039616  0.59865162  0.68804806    -0.83800
O168        O  0.42038650  0.55391710  0.57108616    -0.82100
C169        C  0.47866621  0.60263472  0.76480586     0.86100
O170        O  0.45005586  0.56598377  0.65882372    -0.89200
O171        O  0.43316460  0.53265621  0.73539005    -0.89400
O172        O  0.40141491  0.50633950  0.69119693    -0.76400
Mg173      Mg  0.43534343  0.61165917  0.79483703     1.58000
O174        O  0.43720288  0.55845303  0.86209627    -0.83800
H175        H  0.44345160  0.64568809  0.67684831    -0.07500
O176        O  0.38982289  0.55261924  0.65364732    -0.89100
H177        H  0.35382877  0.51633870  0.65935491    -0.07300
H178        H  0.48556080  0.59865426  0.63860409    -0.07500
C179        C  0.36676031  0.53769391  0.66962037     0.86000
C180        C  0.43373935  0.63013523  0.70028773     0.86600
C181        C  0.46329964  0.58938854  0.64297542     0.86700
H182        H  0.40327129  0.49333601  0.74764147    -0.07500
O183        O  0.39174955  0.53903744  0.79543258    -0.76500
Mg184      Mg  0.41214532  0.53254550  0.63311470     1.58000
H185        H  0.36009445  0.54728496  0.79168840    -0.07500
C186        C  0.34596760  0.59492184  0.65066167     0.91700
O187        O  0.40313265  0.58250859  0.56678579    -0.83700
C188        C  0.41373904  0.56917883  0.55046471     0.91700
O189        O  0.41675657  0.63878234  0.81178711    -0.83700
Mg190      Mg  0.43573371  0.54554978  0.79700689     1.58200
O191        O  0.36186419  0.59054965  0.62763167    -0.82100
O192        O  0.49387013  0.54062534  0.74803544    -0.83800
O193        O  0.19609470  0.60892670  0.04949217    -0.89300
C194        C  0.17429061  0.55818071  0.95315497     0.86700
Mg195      Mg  0.18804392  0.59399390  0.10942314     1.58100
O196        O  0.13471577  0.59065533  0.96362516    -0.89100
O197        O  0.18824024  0.63591366  0.00926300    -0.76400
C198        C  0.05246522  0.50354472  0.11020727     0.91700
O199        O  0.18876101  0.54768969  0.04047550    -0.76200
O200        O  0.07532104  0.50937204  0.12715483    -0.83700
Mg201      Mg  0.21430724  0.59141736  0.01150654     1.58000
C202        C  0.04877359  0.54434334  0.95354844     0.91700
O203        O  0.24167235  0.63466919  0.98617422    -0.82000
H204        H  0.13206428  0.62541800  0.96578408    -0.07300
C205        C  0.09795790  0.51114620  0.01247031     0.86600
O206        O  0.15055833  0.60162304  0.11075518    -0.76500
O207        O  0.18273370  0.58135131  0.96887808    -0.89300
O208        O  0.07092504  0.54994279  0.93445716    -0.82100
C209        C  0.14657353  0.57856698  0.86199358     0.91800
C210        C  0.24398461  0.65084187  0.95750755     0.91600
Mg211      Mg  0.08191528  0.55360424  0.03896795     1.58000
O212        O  0.05187589  0.51355769  0.07574958    -0.82000
O213        O  0.10690695  0.59532916  0.00544864    -0.76200
O214        O  0.16782274  0.59638154  0.88222587    -0.82100
O215        O  0.24867719  0.60044245  0.05374406    -0.83800
O216        O  0.13231798  0.55161241  0.16886292    -0.82100
C217        C  0.12469885  0.60450080  0.97722356     0.86100
O218        O  0.11547256  0.56529095  0.08192767    -0.89200
O219        O  0.10002625  0.53394057  0.00402894    -0.89400
O220        O  0.10505155  0.50656752  0.04671143    -0.76400
Mg221      Mg  0.17763993  0.61494136  0.94694964     1.58000
O222        O  0.12323053  0.56203021  0.87865325    -0.83800
H223        H  0.20050739  0.64553592  0.06734778    -0.07500
O224        O  0.16253613  0.55228045  0.08580991    -0.89100
H225        H  0.16275098  0.51642926  0.07821165    -0.18100
H226        H  0.11195783  0.59697047  0.10443826    -0.07500
C227        C  0.17111149  0.53800533  0.06906008     0.86000
C228        C  0.19549498  0.63075409  0.04306121     0.86600
C229        C  0.12521359  0.58813007  0.09926199     0.86700
H230        H  0.09062470  0.49495264  0.98977882    -0.07500
O231        O  0.14875733  0.54210075  0.94463097    -0.76500
Mg232      Mg  0.11991839  0.53144018  0.10584757     1.58000
H233        H  0.18882690  0.55081533  0.94849113    -0.07500
C234        C  0.24881061  0.59524438  0.09073038     0.91700
O235        O  0.17832665  0.57941474  0.17360177    -0.83700
C236        C  0.15431063  0.56617032  0.18974230     0.91700
O237        O  0.22436810  0.64406394  0.93201773    -0.83700
Mg238      Mg  0.11101051  0.54811163  0.94300612     1.58200
O239        O  0.22806675  0.58977026  0.11343590    -0.82100
O240        O  0.04733796  0.54203981  0.99182577    -0.83800
O241        O  0.19499130  0.60791924  0.54776842    -0.89300
C242        C  0.17425801  0.55623694  0.45278094     0.86700
Mg243      Mg  0.18786517  0.59422249  0.60830710     1.58100
O244        O  0.13329159  0.58716645  0.46287649    -0.89100
O245        O  0.18656057  0.63413658  0.50688631    -0.76400
C246        C  0.05303072  0.50190550  0.61226579     0.91700
O247        O  0.18910927  0.54738582  0.54090599    -0.76200
O248        O  0.07600463  0.50855611  0.62958752    -0.83700
Mg249      Mg  0.21385192  0.59075204  0.51050752     1.58000
C250        C  0.04767460  0.53927995  0.45421505     0.91700
O251        O  0.24029093  0.63368496  0.48375298    -0.82000
H252        H  0.12961111  0.62135626  0.46380951    -0.07300
C253        C  0.09839440  0.50844677  0.51457751     0.86600
O254        O  0.14983145  0.60091608  0.60948145    -0.76500
O255        O  0.18211725  0.57945251  0.46798529    -0.89300
O256        O  0.06980649  0.54486873  0.43515589    -0.82100
C257        C  0.14479497  0.57449870  0.36171834     0.91800
C258        C  0.24223078  0.64954758  0.45485553     0.91600
Mg259      Mg  0.08135428  0.55039122  0.53924638     1.58000
O260        O  0.05223284  0.51067062  0.57696197    -0.82000
O261        O  0.10528317  0.59166660  0.50449399    -0.76200
O262        O  0.16591183  0.59281604  0.38159836    -0.82100
O263        O  0.24863661  0.60131350  0.55254254    -0.83800
O264        O  0.13341980  0.55213184  0.66987629    -0.82100
C265        C  0.12282717  0.60073038  0.47596245     0.86100
O266        O  0.11517882  0.56352820  0.58203845    -0.89200
O267        O  0.10010779  0.53093900  0.50513339    -0.89400
O268        O  0.10554958  0.50459063  0.54924039    -0.76400
Mg269      Mg  0.17592666  0.61222356  0.44539362     1.58000
O270        O  0.12170251  0.55750036  0.37862161    -0.83800
H271        H  0.19910366  0.64456994  0.56471269    -0.07500
O272        O  0.16293329  0.55182611  0.58660396    -0.89100
H273        H  0.16385556  0.51630591  0.57943274    -0.07300
H274        H  0.11069000  0.59490993  0.60335447    -0.07500
C275        C  0.17174802  0.53773214  0.56987713     0.86000
C276        C  0.19410510  0.62952505  0.54080282     0.86600
C277        C  0.12442899  0.58659069  0.59852714     0.86700
H278        H  0.09121354  0.49186444  0.49251586    -0.07500
O279        O  0.14877457  0.53939023  0.44492627    -0.76500
Mg280      Mg  0.12052269  0.53065140  0.60751085     1.58000
H281        H  0.18929772  0.54951278  0.44810639    -0.07500
C282        C  0.24886931  0.59630069  0.58956094     0.91700
O283        O  0.17925920  0.58131625  0.67331272    -0.83700
C284        C  0.15549029  0.56776871  0.69009421     0.91700
O285        O  0.22245137  0.64223103  0.42946923    -0.83700
Mg286      Mg  0.11035428  0.54424193  0.44350977     1.58200
O287        O  0.22810375  0.59067861  0.61225773    -0.82100
O288        O  0.04635724  0.53741836  0.49251555    -0.83800
O289        O  0.80391591  0.38982945  0.29863111    -0.89300
C290        C  0.82527984  0.44167101  0.20341437     0.86700
Mg291      Mg  0.81141122  0.40366234  0.35908514     1.58100
O292        O  0.86552250  0.40982231  0.21293464    -0.89100
O293        O  0.81208531  0.36355316  0.25754951    -0.76400
C294        C  0.94655616  0.49483330  0.36153887     0.91700
O295        O  0.81071751  0.45087323  0.29131808    -0.76200
O296        O  0.92365463  0.48832099  0.37886462    -0.83700
Mg297      Mg  0.78554160  0.40753826  0.26123162     1.58000
C298        C  0.95130430  0.45723184  0.20341478     0.91700
O299        O  0.75875782  0.36457869  0.23498902    -0.82000
H300        H  0.86865971  0.37531108  0.21373568    -0.07300
C301        C  0.90124909  0.48848018  0.26430758     0.86600
O302        O  0.84916031  0.39642190  0.35999035    -0.76500
O303        O  0.81718697  0.41840915  0.21866078    -0.89300
O304        O  0.92906463  0.45163370  0.18459195    -0.82100
C305        C  0.85395803  0.42300597  0.11180085     0.91800
C306        C  0.75667769  0.34882108  0.20594581     0.91600
Mg307      Mg  0.91783833  0.44610705  0.28889590     1.58000
O308        O  0.94727067  0.48574453  0.32647914    -0.82000
O309        O  0.89344010  0.40484771  0.25427375    -0.76200
O310        O  0.83271991  0.40477033  0.13161305    -0.82100
O311        O  0.75094650  0.39768524  0.30330300    -0.83800
O312        O  0.86651838  0.44513706  0.41990493    -0.82100
C313        C  0.87575511  0.39598386  0.22588776     0.86100
O314        O  0.88405036  0.43330800  0.33187468    -0.89200
O315        O  0.89935516  0.46591058  0.25495557    -0.89400
O316        O  0.89410728  0.49240496  0.29888682    -0.76400
Mg317      Mg  0.82276407  0.38538480  0.19579451     1.58000
O318        O  0.87710865  0.43965277  0.12883157    -0.83800
H319        H  0.79966431  0.35306419  0.31541859    -0.07500
O320        O  0.83667271  0.44582491  0.33682453    -0.89100
H321        H  0.83631434  0.48166806  0.32992035    -0.07300
H322        H  0.88793100  0.40155696  0.35335455    -0.07500
C323        C  0.82812003  0.46022804  0.32027042     0.86000
C324        C  0.80467837  0.36817359  0.29154675     0.86600
C325        C  0.87450167  0.41025853  0.34859233     0.86700
H326        H  0.90852383  0.50506243  0.24218447    -0.07500
O327        O  0.85077501  0.45820197  0.19529073    -0.76500
Mg328      Mg  0.87916391  0.46647943  0.35728625     1.58000
H329        H  0.81046129  0.44870849  0.19891137    -0.07500
C330        C  0.75063121  0.40232150  0.34043246     0.91700
O331        O  0.82052556  0.41704225  0.42393680    -0.83700
C332        C  0.84444191  0.43012887  0.44044982     0.91700
O333        O  0.77621821  0.35614371  0.18022780    -0.83700
Mg334      Mg  0.88879758  0.45271804  0.19350433     1.58200
O335        O  0.77125396  0.40749045  0.36324871    -0.82100
O336        O  0.95274588  0.45891259  0.24175115    -0.83800
O337        O  0.80475011  0.39184834  0.79978401    -0.89300
C338        C  0.82495445  0.44103141  0.70219773     0.86700
Mg339      Mg  0.81254680  0.40717039  0.85941819     1.58100
O340        O  0.86592426  0.41026039  0.71490001    -0.89100
O341        O  0.81276319  0.36450423  0.76080489    -0.76400
C342        C  0.94750106  0.49935413  0.86103950     0.91700
O343        O  0.81130021  0.45239627  0.78903948    -0.76200
O344        O  0.92455927  0.49289782  0.87821030    -0.83700
Mg345      Mg  0.78578667  0.40825883  0.76119507     1.58000
C346        C  0.95188699  0.45850537  0.70491204     0.91700
O347        O  0.75853590  0.36449577  0.73694395    -0.82000
H348        H  0.86966905  0.37615540  0.71837571    -0.07300
C349        C  0.90155527  0.49041163  0.76269982     0.86600
O350        O  0.85039554  0.40014043  0.86154968    -0.76500
O351        O  0.81706993  0.41814610  0.71857559    -0.89300
O352        O  0.92952058  0.45212009  0.68577932    -0.82100
C353        C  0.85359651  0.42078769  0.61270482     0.91800
C354        C  0.75638647  0.34801938  0.70884754     0.91600
Mg355      Mg  0.91875355  0.44915244  0.79007853     1.58000
O356        O  0.94822491  0.48982936  0.82628414    -0.82000
O357        O  0.89445100  0.40705952  0.75724559    -0.76200
O358        O  0.83248694  0.40287758  0.63307839    -0.82100
O359        O  0.75159313  0.39950652  0.80326457    -0.83800
O360        O  0.86754667  0.44984781  0.91960710    -0.82100
C361        C  0.87654426  0.39711409  0.72915792     0.86100
O362        O  0.88520493  0.43689344  0.83300488    -0.89200
O363        O  0.89961248  0.46763828  0.75456860    -0.89400
O364        O  0.89476766  0.49516507  0.79703097    -0.76400
Mg365      Mg  0.82297680  0.38486049  0.69813138     1.58000
O366        O  0.87681529  0.43791657  0.62925190    -0.83800
H367        H  0.80059416  0.35558716  0.81901156    -0.07500
O368        O  0.83761190  0.44888174  0.83561506    -0.89100
H369        H  0.83716875  0.48443372  0.82577463    -0.07300
H370        H  0.88935969  0.40563031  0.85583805    -0.07500
C371        C  0.82892915  0.46270285  0.81764968     0.86000
C372        C  0.80547899  0.37001995  0.79423849     0.86600
C373        C  0.87578364  0.41407512  0.85037853     0.86700
H374        H  0.90866035  0.50647199  0.73978601    -0.07500
O375        O  0.85042624  0.45764909  0.69401142    -0.76500
Mg376      Mg  0.88003988  0.47031580  0.85643756     1.58000
H377        H  0.80995750  0.44772598  0.69678430    -0.07500
C378        C  0.75191204  0.40566510  0.83988920     0.91700
O379        O  0.82159989  0.42161137  0.92356377    -0.83700
C380        C  0.84546916  0.43480069  0.94010953     0.91700
O381        O  0.77613313  0.35465861  0.68362123    -0.83700
Mg382      Mg  0.88881869  0.45275599  0.69353330     1.58200
O383        O  0.77278209  0.41148901  0.86250283    -0.82100
O384        O  0.95341341  0.46125395  0.74310721    -0.83800
O385        O  0.61122045  0.19625170  0.11152272    -0.89300
C386        C  0.56019715  0.17477365  0.20757434     0.86700
Mg387      Mg  0.59706829  0.18887991  0.05109709     1.58100
O388        O  0.59182463  0.13443552  0.19777277    -0.89100
O389        O  0.63750461  0.18788115  0.15232944    -0.76400
C390        C  0.50659026  0.05283297  0.04869230     0.91700
O391        O  0.55033572  0.18892093  0.11968725    -0.76200
O392        O  0.51277074  0.07583558  0.03156408    -0.83700
Mg393      Mg  0.59361985  0.21425719  0.14941306     1.58000
C394        C  0.54460721  0.04830769  0.20676463     0.91700
O395        O  0.63631702  0.24141312  0.17528246    -0.82000
H396        H  0.62614743  0.13123819  0.19657686    -0.07300
C397        C  0.51323880  0.09845515  0.14658849     0.86600
O398        O  0.60463608  0.15116150  0.05009691    -0.76500
O399        O  0.58318973  0.18269681  0.19196308    -0.89300
O400        O  0.55026370  0.07052533  0.22597812    -0.82100
C401        C  0.57945080  0.14653176  0.29904239     0.91800
C402        C  0.65251815  0.24384912  0.20381280     0.91600
Mg403      Mg  0.55550369  0.08206363  0.12139908     1.58000
O404        O  0.51605460  0.05219773  0.08353906    -0.82000
O405        O  0.59662152  0.10658041  0.15600769    -0.76200
O406        O  0.59751721  0.16769373  0.27885096    -0.82100
O407        O  0.60313101  0.24865499  0.10774785    -0.83800
O408        O  0.55557985  0.13328141  0.99110303    -0.82100
C409        C  0.60553071  0.12418518  0.18455365     0.86100
O410        O  0.56804940  0.11597179  0.07840340    -0.89200
O411        O  0.53579038  0.10046049  0.15580720    -0.89400
O412        O  0.50912375  0.10548980  0.11198960    -0.76400
Mg413      Mg  0.61634637  0.17740030  0.21445445     1.58000
O414        O  0.56264501  0.12317246  0.28234878    -0.83800
H415        H  0.64760488  0.20020871  0.09433806    -0.07500
O416        O  0.55527268  0.16314325  0.07376937    -0.89100
H417        H  0.51954498  0.16333453  0.08113815    -0.07300
H418        H  0.59973022  0.11229608  0.05677892    -0.07500
C419        C  0.54094641  0.17158747  0.09061637     0.86000
C420        C  0.63273925  0.19532071  0.11838341     0.86600
C421        C  0.59097623  0.12569018  0.06156934     0.86700
H422        H  0.49682358  0.09114423  0.16882666    -0.07500
O423        O  0.54365731  0.14921372  0.21583481    -0.76500
Mg424      Mg  0.53465284  0.12053808  0.05342427     1.58000
H425        H  0.55338130  0.18978771  0.21221257    -0.07500
C426        C  0.59705918  0.24898223  0.07125697     0.91700
O427        O  0.58358170  0.17945285  0.98632421    -0.83700
C428        C  0.57049976  0.15528244  0.97026952     0.91700
O429        O  0.64578819  0.22424824  0.22946299    -0.83700
Mg430      Mg  0.54918689  0.11108677  0.21744012     1.58200
O431        O  0.59200878  0.22882355  0.04738353    -0.82100
O432        O  0.54293287  0.04712583  0.16842904    -0.83800
O433        O  0.61016422  0.19650528  0.61248806    -0.89300
C434        C  0.55855740  0.17242086  0.70982111     0.86700
Mg435      Mg  0.59544624  0.18935436  0.55242849     1.58100
O436        O  0.59145255  0.13292567  0.69725161    -0.89100
O437        O  0.63672808  0.18737707  0.65188610    -0.76400
C438        C  0.50535921  0.05311340  0.54735329     0.91700
O439        O  0.54894048  0.18866888  0.62142974    -0.76200
O440        O  0.51192859  0.07635694  0.53071327    -0.83700
Mg441      Mg  0.59226234  0.21384325  0.65113466     1.58000
C442        C  0.54386244  0.04672396  0.70462014     0.91700
O443        O  0.63530607  0.24082372  0.67777056    -0.82000
H444        H  0.62557605  0.12942309  0.69476586    -0.07300
C445        C  0.51222665  0.09734860  0.64670386     0.86600
O446        O  0.60333254  0.15175557  0.55032085    -0.76500
O447        O  0.58134305  0.17978890  0.69209946    -0.89300
O448        O  0.55005921  0.06893586  0.72422848    -0.82100
C449        C  0.57954264  0.14410523  0.79879621     0.91800
C450        C  0.65173117  0.24281623  0.70581972     0.91600
Mg451      Mg  0.55430331  0.08124641  0.62006656     1.58000
O452        O  0.51453935  0.05194212  0.58218790    -0.82000
O453        O  0.59561126  0.10520956  0.65443428    -0.76200
O454        O  0.59783333  0.16515081  0.77870987    -0.82100
O455        O  0.60148463  0.24876998  0.61110870    -0.83800
O456        O  0.55468293  0.13417132  0.49152016    -0.82100
C457        C  0.60489609  0.12262476  0.68321015     0.86100
O458        O  0.56697084  0.11585468  0.57803891    -0.89200
O459        O  0.53484592  0.09937421  0.65556393    -0.89400
O460        O  0.50801779  0.10471011  0.61238492    -0.76400
Mg461      Mg  0.61639158  0.17574517  0.71464661     1.58000
O462        O  0.56236066  0.12088022  0.78209616    -0.83800
H463        H  0.64656211  0.20095420  0.59431656    -0.07500
O464        O  0.55392241  0.16298338  0.57545501    -0.89100
H465        H  0.51802563  0.16278972  0.58323871    -0.07300
H466        H  0.59908257  0.11308593  0.55602031    -0.07500
C467        C  0.53949165  0.17121463  0.59251263     0.86000
C468        C  0.63177651  0.19554089  0.61861181     0.86600
C469        C  0.58999084  0.12613221  0.56128501     0.86700
H470        H  0.49581768  0.08967890  0.66898645    -0.07500
O471        O  0.54195541  0.14694433  0.71823668    -0.76500
Mg472      Mg  0.53357208  0.12065623  0.55382357     1.58000
H473        H  0.55237963  0.18783177  0.71560806    -0.07500
C474        C  0.59486480  0.24912076  0.57489129     0.91700
O475        O  0.58173820  0.18047053  0.48746205    -0.83700
C476        C  0.56927875  0.15641407  0.47097603     0.91700
O477        O  0.64540343  0.22268904  0.73040321    -0.83700
Mg478      Mg  0.54855122  0.10932296  0.71728316     1.58200
O479        O  0.58977007  0.22910931  0.55060761    -0.82100
O480        O  0.54161748  0.04569774  0.66632209    -0.83800
O481        O  0.38905117  0.80286843  0.35986784    -0.89300
C482        C  0.43845595  0.82395676  0.45736768     0.86700
Mg483      Mg  0.40422837  0.81027436  0.30005934     1.58100
O484        O  0.40770864  0.86499531  0.44486523    -0.89100
O485        O  0.36223202  0.81142520  0.39911394    -0.76400
C486        C  0.49618803  0.94592604  0.29799029     0.91700
O487        O  0.44961493  0.80994227  0.37079342    -0.76200
O488        O  0.48950450  0.92287048  0.28069996    -0.83700
Mg489      Mg  0.40579028  0.78456342  0.39893725     1.58000
C490        C  0.45650273  0.95136728  0.45406572     0.91700
O491        O  0.36237780  0.75730526  0.42333482    -0.82000
H492        H  0.37375145  0.86877672  0.44159819    -0.07300
C493        C  0.48715774  0.90024571  0.39627017     0.86600
O494        O  0.39703206  0.84825341  0.29777703    -0.76500
O495        O  0.41571360  0.81618676  0.44098665    -0.89300
O496        O  0.44962999  0.92883068  0.47332644    -0.82100
C497        C  0.41908172  0.85280082  0.54704969     0.91800
C498        C  0.34610026  0.75520007  0.45155339     0.91600
Mg499      Mg  0.44609072  0.91749694  0.36900732     1.58000
O500        O  0.48649778  0.94669810  0.33254439    -0.82000
O501        O  0.40431581  0.89341508  0.40228205    -0.76200
O502        O  0.40101638  0.83167904  0.52676327    -0.82100
O503        O  0.39718739  0.75019398  0.35774196    -0.83800
O504        O  0.44622856  0.86557508  0.24007980    -0.82100
C505        C  0.39455584  0.87559822  0.43060425     0.86100
O506        O  0.43351992  0.88347874  0.32628409    -0.89200
O507        O  0.46452135  0.89834897  0.40449805    -0.89400
O508        O  0.49175886  0.89325119  0.36199378    -0.76400
Mg509      Mg  0.38263469  0.82195199  0.46184364     1.58000
O510        O  0.43592418  0.87617431  0.53040574    -0.83800
H511        H  0.35297280  0.79896013  0.34103640    -0.07500
O512        O  0.44564740  0.83581602  0.32384603    -0.89100
H513        H  0.48118254  0.83557292  0.33332938    -0.07300
H514        H  0.40212962  0.88725182  0.30351634    -0.07500
C515        C  0.45960171  0.82732590  0.34178733     0.86000
C516        C  0.36746655  0.80387229  0.36564437     0.86600
C517        C  0.41072869  0.87378214  0.30898447     0.86700
H518        H  0.50322621  0.90747223  0.41907302    -0.07500
O519        O  0.45510652  0.84950479  0.46547782    -0.76500
Mg520      Mg  0.46682746  0.87827738  0.30283390     1.58000
H521        H  0.44499195  0.80879433  0.46281748    -0.07500
C522        C  0.40399110  0.75021318  0.32155434     0.91700
O523        O  0.41862643  0.81935616  0.23579132    -0.83700
C524        C  0.43149598  0.84343156  0.21944323     0.91700
O525        O  0.35280665  0.77501872  0.47679559    -0.83700
Mg526      Mg  0.45014983  0.88795022  0.46574611     1.58200
O527        O  0.40931555  0.77045660  0.29766934    -0.82100
O528        O  0.45888597  0.95265721  0.41580561    -0.83800
O529        O  0.39033762  0.80236617  0.86024302    -0.89300
C530        C  0.44198564  0.82410788  0.95774903     0.86700
Mg531      Mg  0.40482702  0.80929052  0.79995275     1.58100
O532        O  0.41066198  0.86520367  0.94657048    -0.89100
O533        O  0.36451759  0.81182845  0.90054862    -0.76400
C534        C  0.49694168  0.94479274  0.79703805     0.91700
O535        O  0.45069595  0.80800944  0.86828764    -0.76200
O536        O  0.48983961  0.92159754  0.77989050    -0.83700
Mg537      Mg  0.40739330  0.78386465  0.89828205     1.58000
C538        C  0.45982440  0.95104707  0.95524652     0.91700
O539        O  0.36456680  0.75772579  0.92517535    -0.82000
H540        H  0.37702281  0.86955444  0.94456735    -0.07300
C541        C  0.48947567  0.89913993  0.89528666     0.86600
O542        O  0.39820155  0.84769699  0.79830657    -0.76500
O543        O  0.41946972  0.81772554  0.93990398    -0.89300
O544        O  0.45355582  0.92857582  0.97420325    -0.82100
C545        C  0.42212312  0.85307790  0.04768537     0.91800
C546        C  0.34848053  0.75573767  0.95360623     0.91600
Mg547      Mg  0.44833933  0.91697512  0.86985816     1.58000
O548        O  0.48825217  0.94589386  0.83222474    -0.82000
O549        O  0.40702960  0.89350660  0.90415643    -0.76200
O550        O  0.40360122  0.83214563  0.02766851    -0.82100
O551        O  0.39635943  0.74895745  0.85790099    -0.83800
O552        O  0.44619464  0.86439809  0.73931927    -0.82100
C553        C  0.39757677  0.87601270  0.93285263     0.86100
O554        O  0.43487621  0.88256347  0.82706743    -0.89200
O555        O  0.46720985  0.89774827  0.90458501    -0.89400
O556        O  0.49326921  0.89190312  0.86065258    -0.76400
Mg557      Mg  0.38502182  0.82243736  0.96339041     1.58000
O558        O  0.43971459  0.87609348  0.03090912    -0.83800
H559        H  0.35433854  0.79920028  0.84267304    -0.07500
O560        O  0.44654533  0.83454213  0.82276611    -0.89100
H561        H  0.48181709  0.83340759  0.83002859    -0.07300
H562        H  0.40359270  0.88676948  0.80490808    -0.07500
C563        C  0.46049194  0.82557497  0.83949497     0.86000
C564        C  0.36911048  0.80392318  0.86683898     0.86600
C565        C  0.41204449  0.87313035  0.80996455     0.86700
H566        H  0.50593763  0.90615132  0.91744401    -0.07500
O567        O  0.45913012  0.84931686  0.96674719    -0.76500
Mg568      Mg  0.46759044  0.87706263  0.80196753     1.58000
H569        H  0.44744297  0.80811272  0.96316450    -0.07500
C570        C  0.40318879  0.74850205  0.82190176     0.91700
O571        O  0.41852341  0.81818301  0.73495026    -0.83700
C572        C  0.43121301  0.84231077  0.71861509     0.91700
O573        O  0.35530909  0.77564962  0.97866814    -0.83700
Mg574      Mg  0.45367566  0.88766980  0.96634791     1.58200
O575        O  0.40925075  0.76881184  0.79766040    -0.82100
O576        O  0.46171694  0.95242160  0.91689608    -0.83800
C577        C  0.43853768  0.87384160  0.61463339    -0.14300
C578        C  0.42131858  0.85008114  0.59116537     0.07800
C579        C  0.40746492  0.82368736  0.61000168    -0.14300
C580        C  0.41089648  0.82111365  0.65121267    -0.14300
C581        C  0.42816575  0.84488594  0.67464531     0.07800
C582        C  0.44186795  0.87128899  0.65581611    -0.14300
H583        H  0.44956566  0.89451000  0.60115852     0.11800
H584        H  0.39423931  0.80493468  0.59280554     0.11800
H585        H  0.39995147  0.80045602  0.66471888     0.11800
H586        H  0.45521620  0.89006621  0.67289685     0.11800
C587        C  0.41266394  0.82183920  0.15197545    -0.14300
C588        C  0.42902715  0.84583438  0.17547361     0.07800
C589        C  0.44249228  0.87223107  0.15667087    -0.14300
C590        C  0.43993685  0.87455702  0.11529456    -0.14300
C591        C  0.42373012  0.85056636  0.09176349     0.07800
C592        C  0.40998681  0.82418791  0.11058246    -0.14300
H593        H  0.40191691  0.80119218  0.16553952     0.11800
H594        H  0.45507214  0.89115404  0.17390004     0.11800
H595        H  0.45070358  0.89520716  0.10172935     0.11800
H596        H  0.39748509  0.80530036  0.09324550     0.11800
C597        C  0.52687099  0.99502826  0.70911341    -0.14300
C598        C  0.53701386  0.02109123  0.72810004     0.07800
C599        C  0.53737306  0.02197838  0.77046275    -0.14300
C600        C  0.52583139  0.99728732  0.79313374    -0.14300
C601        C  0.51399870  0.97111381  0.77405636     0.07800
C602        C  0.51561911  0.97032610  0.73185122    -0.14300
H603        H  0.52631068  0.99354918  0.67664218     0.11800
H604        H  0.54522642  0.04168976  0.78623020     0.11800
H605        H  0.52510394  0.99864403  0.82553607     0.11800
H606        H  0.50664437  0.95047937  0.71614471     0.11800
C607        C  0.48579919  0.02781870  0.48216728    -0.14300
C608        C  0.48818107  0.02686349  0.52425379     0.07800
C609        C  0.47668369  0.00060466  0.54307636    -0.14300
C610        C  0.46458641  0.97599430  0.52024747    -0.14300
C611        C  0.46405863  0.97701685  0.47792454     0.07800
C612        C  0.47401316  0.00318457  0.45923697    -0.14300
H613        H  0.49449212  0.04773422  0.46664860     0.11800
H614        H  0.47799988  0.99910679  0.57537644     0.11800
H615        H  0.45697259  0.95622089  0.53580906     0.11800
H616        H  0.47391963  0.00477714  0.42680262     0.11800
C617        C  0.59395382  0.17293949  0.86183249    -0.14300
C618        C  0.57774870  0.14687346  0.84281656     0.07800
C619        C  0.55905231  0.12365787  0.86608328    -0.14300
C620        C  0.55665187  0.12642311  0.90737779    -0.14300
C621        C  0.57277058  0.15250768  0.92636916     0.07800
C622        C  0.59145153  0.17573575  0.90312536    -0.14300
H623        H  0.60843477  0.19128084  0.84477125     0.11800
H624        H  0.54618435  0.10329002  0.85239862     0.11800
H625        H  0.54207849  0.10809543  0.92439290     0.11800
H626        H  0.60425602  0.19609962  0.91685067     0.11800
C627        C  0.56031313  0.12534449  0.36660458    -0.14300
C628        C  0.57747995  0.14914210  0.34317419     0.07800
C629        C  0.59197131  0.17542244  0.36219469    -0.14300
C630        C  0.58917879  0.17785211  0.40358620    -0.14300
C631        C  0.57192471  0.15404132  0.42695314     0.07800
C632        C  0.55763235  0.12774842  0.40795033    -0.14300
H633        H  0.54887310  0.10476113  0.35299723     0.11800
H634        H  0.60526370  0.19419010  0.34503611     0.11800
H635        H  0.60059123  0.19840732  0.41727521     0.11800
H636        H  0.54427610  0.10894274  0.42500642     0.11800
C637        C  0.52926931  0.99700376  0.21160194    -0.14300
C638        C  0.53766192  0.02277636  0.23054993     0.07800
C639        C  0.53612325  0.02332885  0.27279193    -0.14300
C640        C  0.52425341  0.99849176  0.29514496    -0.14300
C641        C  0.51394221  0.97251356  0.27589303     0.07800
C642        C  0.51766931  0.97215807  0.23405480    -0.14300
H643        H  0.53030442  0.99581243  0.17922128     0.11800
H644        H  0.54262708  0.04281998  0.28854368     0.11800
H645        H  0.52195414  0.99954710  0.32730830     0.11800
H646        H  0.51001857  0.95249435  0.21822846     0.11800
C647        C  0.48495747  0.02669997  0.98454039    -0.14300
C648        C  0.48972507  0.02622054  0.02610899     0.07800
C649        C  0.48128208  0.00027603  0.04453125    -0.14300
C650        C  0.46996665  0.97571624  0.02167002    -0.14300
C651        C  0.46707704  0.97643904  0.97962824     0.07800
C652        C  0.47391298  0.00211001  0.96152042    -0.14300
H653        H  0.49119361  0.04633372  0.96931020     0.11800
H654        H  0.48451908  0.99906884  0.07640907     0.11800
H655        H  0.46481961  0.95633115  0.03684448     0.11800
H656        H  0.47182594  0.00342081  0.92934806     0.11800
C657        C  0.71850082  0.30692549  0.67123396    -0.14300
C658        C  0.73042495  0.32032406  0.70760709     0.07800
C659        C  0.71691067  0.30734171  0.74391982    -0.14300
C660        C  0.69174934  0.28165986  0.74385607    -0.14300
C661        C  0.67922536  0.26891525  0.70739990     0.07800
C662        C  0.69293034  0.28167786  0.67113732    -0.14300
H663        H  0.72847575  0.31637277  0.64295723     0.11800
H664        H  0.72588485  0.31712684  0.77250798     0.11800
H665        H  0.68169473  0.27224083  0.77210593     0.11800
H666        H  0.68378880  0.27201855  0.64255327     0.11800
C667        C  0.71751040  0.30932467  0.16822532    -0.14300
C668        C  0.73116994  0.32102601  0.20444479     0.07800
C669        C  0.71962472  0.30647408  0.24066972    -0.14300
C670        C  0.69444444  0.28089970  0.24081833    -0.14300
C671        C  0.68002972  0.26986465  0.20480135     0.07800
C672        C  0.69198032  0.28412964  0.16846402    -0.14300
H673        H  0.72604221  0.32010151  0.14004779     0.11800
H674        H  0.73009707  0.31504772  0.26902014     0.11800
H675        H  0.68586289  0.27025255  0.26905641     0.11800
H676        H  0.68147756  0.27578185  0.14006890     0.11800
C677        C  0.87299920  0.44007393  0.50328369    -0.14300
C678        C  0.84670811  0.42766789  0.48454893     0.07800
C679        C  0.82264320  0.41247266  0.50829969    -0.14300
C680        C  0.82483343  0.40978813  0.54978461    -0.14300
C681        C  0.85113067  0.42234668  0.56850002     0.07800
C682        C  0.87517541  0.43749100  0.54473544    -0.14300
H683        H  0.89196412  0.45178650  0.48592113     0.11800
H684        H  0.80205338  0.40267301  0.49486076     0.11800
H685        H  0.80591090  0.39822069  0.56727749     0.11800
H686        H  0.89577003  0.44739461  0.55818309     0.11800
C687        C  0.82581078  0.41091022  0.04818871    -0.14300
C688        C  0.85175279  0.42550575  0.06774467     0.07800
C689        C  0.87559828  0.44338078  0.04497167    -0.14300
C690        C  0.87355654  0.44659395  0.00366445    -0.14300
C691        C  0.84759841  0.43209366  0.98412729     0.07800
C692        C  0.82374815  0.41421564  0.00688336    -0.14300
H693        H  0.80703177  0.39711030  0.06484303     0.11800
H694        H  0.89593630  0.45495658  0.05905944     0.11800
H695        H  0.89235070  0.46041833  0.98704766     0.11800
H696        H  0.80342636  0.40262805  0.99275897     0.11800
C697        C  0.28112133  0.69071303  0.48949453    -0.14300
C698        C  0.26786387  0.67742647  0.45321798     0.07800
C699        C  0.27971077  0.69074079  0.41675683    -0.14300
C700        C  0.30506980  0.71621307  0.41662600    -0.14300
C701        C  0.31857942  0.72919184  0.45292530     0.07800
C702        C  0.30604771  0.71653416  0.48937811    -0.14300
H703        H  0.27216361  0.68101716  0.51814181     0.11800
H704        H  0.26988833  0.68106250  0.38850720     0.11800
H705        H  0.31425168  0.72580710  0.38802038     0.11800
H706        H  0.31597130  0.72610010  0.51762859     0.11800
C707        C  0.02718378  0.48289644  0.67717076    -0.14300
C708        C  0.02660300  0.48553447  0.63510287     0.07800
C709        C  0.00070507  0.47582772  0.61613217    -0.14300
C710        C  0.97624204  0.46541649  0.63881167    -0.14300
C711        C  0.97707022  0.46471925  0.68111132     0.07800
C712        C  0.00271200  0.47274121  0.69993821    -0.14300
H713        H  0.04679600  0.49023558  0.69281378     0.11800
H714        H  0.99946789  0.47744738  0.58383999     0.11800
H715        H  0.95685585  0.45925239  0.62316430     0.11800
H716        H  0.00410666  0.47236719  0.73237332     0.11800
C717        C  0.02334256  0.53192984  0.38798637    -0.14300
C718        C  0.02251855  0.53293329  0.43025972     0.07800
C719        C  0.99690409  0.52503912  0.44896585    -0.14300
C720        C  0.97241935  0.51457304  0.42615403    -0.14300
C721        C  0.97298335  0.51151060  0.38418783     0.07800
C722        C  0.99886128  0.52120678  0.36526366    -0.14300
H723        H  0.04273833  0.53806813  0.37243326     0.11800
H724        H  0.99553319  0.52568983  0.48136780     0.11800
H725        H  0.95281399  0.50730449  0.44173796     0.11800
H726        H  0.00006958  0.51932236  0.33303242     0.11800
C727        C  0.28178456  0.69156394  0.91944664    -0.14300
C728        C  0.26991784  0.67842351  0.95597231     0.07800
C729        C  0.28335035  0.69163699  0.99219004    -0.14300
C730        C  0.30845861  0.71730636  0.99189583    -0.14300
C731        C  0.32095023  0.72979931  0.95532196     0.07800
C732        C  0.30728701  0.71682769  0.91913420    -0.14300
H733        H  0.27181588  0.68191569  0.89125577     0.11800
H734        H  0.27436101  0.68204302  0.02087609     0.11800
H735        H  0.31850878  0.72690005  0.02006997     0.11800
H736        H  0.31642673  0.72630205  0.89045414     0.11800
C737        C  0.02655700  0.48238713  0.17445083    -0.14300
C738        C  0.02599463  0.48650606  0.13271397     0.07800
C739        C  0.00010009  0.47735296  0.11406840    -0.14300
C740        C  0.97562539  0.46607401  0.13690379    -0.14300
C741        C  0.97644708  0.46399281  0.17907537     0.07800
C742        C  0.00208287  0.47140339  0.19740425    -0.14300
H743        H  0.04616425  0.48920073  0.18984189     0.11800
H744        H  0.99887043  0.48004721  0.08202673     0.11800
H745        H  0.95623681  0.46038783  0.12159317     0.11800
H746        H  0.00347611  0.46995291  0.22969392     0.11800
C747        C  0.17681418  0.58951480  0.75668028    -0.14300
C748        C  0.15336943  0.57046236  0.73412165     0.07800
C749        C  0.12771773  0.55443634  0.75393201    -0.14300
C750        C  0.12555057  0.55732787  0.79525812    -0.14300
C751        C  0.14895989  0.57638444  0.81787557     0.07800
C752        C  0.17462553  0.59247299  0.79807341    -0.14300
H753        H  0.19688343  0.60226577  0.74233504     0.11800
H754        H  0.10924354  0.53958868  0.73752092     0.11800
H755        H  0.10545027  0.54450655  0.80948828     0.11800
H756        H  0.19308401  0.60723812  0.81457614     0.11800
C757        C  0.12552601  0.55456363  0.25250651    -0.14300
C758        C  0.15184263  0.56796896  0.23381556     0.07800
C759        C  0.17578771  0.58365469  0.25756165    -0.14300
C760        C  0.17347953  0.58599878  0.29899321    -0.14300
C761        C  0.14718960  0.57259612  0.31767433     0.07800
C762        C  0.12323401  0.55679276  0.29398471    -0.14300
H763        H  0.10665301  0.54240747  0.23509160     0.11800
H764        H  0.19638095  0.59422508  0.24413891     0.11800
H765        H  0.19233736  0.59811939  0.31644468     0.11800
H766        H  0.10265385  0.54623280  0.30746418     0.11800
C767        C  0.97335219  0.51912520  0.92569415    -0.14300
C768        C  0.97393792  0.51644343  0.88364319     0.07800
C769        C  0.99990592  0.52688740  0.86463515    -0.14300
C770        C  0.02446299  0.53785347  0.88733337    -0.14300
C771        C  0.02362411  0.53830720  0.92966171     0.07800
C772        C  0.99789209  0.52979390  0.94845950    -0.14300
H773        H  0.95369621  0.51130244  0.94137072     0.11800
H774        H  0.00113809  0.52536058  0.83233811     0.11800
H775        H  0.04393880  0.54450688  0.87170172     0.11800
H776        H  0.99646706  0.52999654  0.98089835     0.11800
C777        C  0.41317934  0.68643494  0.83322272    -0.14300
C778        C  0.40334222  0.67257024  0.79652680     0.07800
C779        C  0.39502672  0.68493779  0.76642122    -0.14300
C780        C  0.39611692  0.71053336  0.77332293    -0.14300
C781        C  0.40513471  0.72377046  0.81061391     0.07800
C782        C  0.41395346  0.71164064  0.84020359    -0.14300
H783        H  0.41996280  0.67764682  0.85678269     0.11800
H784        H  0.38772243  0.67484940  0.73751323     0.11800
H785        H  0.38907127  0.71940848  0.75025481     0.11800
H786        H  0.42119193  0.72158641  0.86923966     0.11800
C787        C  0.30082467  0.59401456  0.66124124    -0.14300
C788        C  0.32130013  0.59543466  0.63462431     0.07800
C789        C  0.31785613  0.59746742  0.59330799    -0.14300
C790        C  0.29449851  0.59814132  0.57893515    -0.14300
C791        C  0.27390193  0.59647911  0.60553948     0.07800
C792        C  0.27733314  0.59439498  0.64685002    -0.14300
H793        H  0.30279050  0.59233624  0.69335886     0.11800
H794        H  0.33325929  0.59869622  0.57213253     0.11800
H795        H  0.29246330  0.59967254  0.54680323     0.11800
H796        H  0.26189466  0.59305904  0.66804954     0.11800
C797        C  0.42051723  0.69224507  0.32891925    -0.14300
C798        C  0.40668523  0.67574299  0.29535845     0.07800
C799        C  0.39373822  0.68531558  0.26807995    -0.14300
C800        C  0.39403759  0.71052771  0.27491340    -0.14300
C801        C  0.40700951  0.72628930  0.30933078     0.07800
C802        C  0.42051108  0.71712181  0.33591143    -0.14300
H803        H  0.43096547  0.68573537  0.35017439     0.11800
H804        H  0.38315997  0.67320759  0.24159563     0.11800
H805        H  0.38323549  0.71707116  0.25436022     0.11800
H806        H  0.43067417  0.72906709  0.36272926     0.11800
C807        C  0.30272238  0.59641741  0.16227005    -0.14300
C808        C  0.32214500  0.59581005  0.13548304     0.07800
C809        C  0.31708089  0.59487554  0.09411222    -0.14300
C810        C  0.29329469  0.59478446  0.07985756    -0.14300
C811        C  0.27383945  0.59530830  0.10664138     0.07800
C812        C  0.27877078  0.59600594  0.14802072    -0.14300
H813        H  0.30590056  0.59701906  0.19444572     0.11800
H814        H  0.33154925  0.59436929  0.07275571     0.11800
H815        H  0.29005676  0.59409682  0.04768844     0.11800
H816        H  0.26426914  0.59647498  0.16935284     0.11800
C817        C  0.43183503  0.55563857  0.94638164    -0.14300
C818        C  0.42641258  0.57355542  0.92288200     0.07800
C819        C  0.41669637  0.58975147  0.94192520    -0.14300
C820        C  0.41230659  0.58790852  0.98344835    -0.14300
C821        C  0.41763378  0.56990826  0.00690334     0.07800
C822        C  0.42754528  0.55387321  0.98789295    -0.14300
H823        H  0.43937771  0.54290399  0.93271612     0.11800
H824        H  0.41229330  0.60375373  0.92472350     0.11800
H825        H  0.40478124  0.60064201  0.99716318     0.11800
H826        H  0.43193624  0.53984722  0.00506373     0.11800
C827        C  0.42041769  0.59316775  0.44193032    -0.14300
C828        C  0.42861443  0.57580202  0.42261319     0.07800
C829        C  0.43181376  0.55626602  0.44576768    -0.14300
C830        C  0.42692571  0.55411967  0.48715235    -0.14300
C831        C  0.41860288  0.57137367  0.50645064     0.07800
C832        C  0.41541132  0.59093651  0.48335994    -0.14300
H833        H  0.41770197  0.60840610  0.42501536     0.11800
H834        H  0.43800857  0.54249115  0.43191271     0.11800
H835        H  0.42956642  0.53880571  0.50400227     0.11800
H836        H  0.40916016  0.60463625  0.49731744     0.11800
C837        C  0.60631493  0.31317337  0.01577691    -0.14300
C838        C  0.59471225  0.32367969  0.04380216     0.07800
C839        C  0.58231227  0.30818985  0.07870428    -0.14300
C840        C  0.58231869  0.28337804  0.08617701    -0.14300
C841        C  0.59443596  0.27318971  0.05883262     0.07800
C842        C  0.60602003  0.28796326  0.02313605    -0.14300
H843        H  0.61575705  0.32451004  0.98827610     0.11800
H844        H  0.57296458  0.31544649  0.10064811     0.11800
H845        H  0.57314014  0.27223516  0.11393212     0.11800
H846        H  0.61569029  0.28062896  0.00185635     0.11800
C847        C  0.69922403  0.40651596  0.91118236    -0.14300
C848        C  0.67934464  0.40620499  0.88434850     0.07800
C849        C  0.68393310  0.40641582  0.84295239    -0.14300
C850        C  0.70757483  0.40628835  0.82871671    -0.14300
C851        C  0.72728147  0.40627763  0.85558509     0.07800
C852        C  0.72300652  0.40671237  0.89695466    -0.14300
H853        H  0.69644595  0.40664168  0.94336757     0.11800
H854        H  0.66909862  0.40628689  0.82161043     0.11800
H855        H  0.71042456  0.40623742  0.79653844     0.11800
H856        H  0.73781598  0.40681131  0.91831721     0.11800
C857        C  0.54367720  0.51622551  0.81483503    -0.14300
C858        C  0.54027502  0.51359112  0.85688489     0.07800
C859        C  0.52464463  0.52394605  0.87564830    -0.14300
C860        C  0.51132238  0.53506634  0.85274546    -0.14300
C861        C  0.51296906  0.53575488  0.81042820     0.07800
C862        C  0.53006304  0.52704993  0.79184926    -0.14300
H863        H  0.55552450  0.50837317  0.79934929     0.11800
H864        H  0.52171723  0.52237247  0.90792217     0.11800
H865        H  0.49851275  0.54177387  0.86821976     0.11800
H866        H  0.53185909  0.52732204  0.75942826     0.11800
C867        C  0.47003507  0.47221529  0.04191210    -0.14300
C868        C  0.48749736  0.46402679  0.06078553     0.07800
C869        C  0.48954259  0.46539796  0.10304059    -0.14300
C870        C  0.47624450  0.47668803  0.12552221    -0.14300
C871        C  0.46028661  0.48659602  0.10640533     0.07800
C872        C  0.45646775  0.48324234  0.06448777    -0.14300
H873        H  0.46788504  0.47135785  0.00951558     0.11800
H874        H  0.50265691  0.45913134  0.11873256     0.11800
H875        H  0.47950030  0.47880022  0.15772675     0.11800
H876        H  0.44432952  0.49068353  0.04874680     0.11800
C877        C  0.60267998  0.31238540  0.51871942    -0.14300
C878        C  0.59344435  0.32436859  0.54806965     0.07800
C879        C  0.58268220  0.31004064  0.58429207    -0.14300
C880        C  0.58223582  0.28497596  0.59174525    -0.14300
C881        C  0.59223195  0.27342981  0.56304343     0.07800
C882        C  0.60188994  0.28696667  0.52604990    -0.14300
H883        H  0.61069490  0.32275192  0.49014315     0.11800
H884        H  0.57510330  0.31845445  0.60723191     0.11800
H885        H  0.57445475  0.27475593  0.62049894     0.11800
H886        H  0.60980730  0.27854083  0.50362712     0.11800
C887        C  0.69599195  0.39916221  0.41203597    -0.14300
C888        C  0.67724018  0.40124943  0.38546080     0.07800
C889        C  0.68294410  0.40370176  0.34418846    -0.14300
C890        C  0.70674626  0.40393357  0.32981918    -0.14300
C891        C  0.72555547  0.40201229  0.35641704     0.07800
C892        C  0.71995759  0.39970820  0.39769157    -0.14300
H893        H  0.69231381  0.39734459  0.44413337     0.11800
H894        H  0.66904015  0.40543511  0.32299751     0.11800
H895        H  0.71055359  0.40590300  0.29774870     0.11800
H896        H  0.73395997  0.39810760  0.41884662     0.11800
C897        C  0.57161863  0.44752165  0.69555060    -0.14300
C898        C  0.57564247  0.42843802  0.67264037     0.07800
C899        C  0.58421980  0.41146729  0.69226215    -0.14300
C900        C  0.58863686  0.41349339  0.73377036    -0.14300
C901        C  0.58445184  0.43243577  0.75671157     0.07800
C902        C  0.57590013  0.44944526  0.73711912    -0.14300
H903        H  0.56506714  0.46095678  0.68140253     0.11800
H904        H  0.58759281  0.39661074  0.67554969     0.11800
H905        H  0.59513322  0.40001773  0.74792577     0.11800
H906        H  0.57251272  0.46427634  0.75388781     0.11800
C907        C  0.57364724  0.44393770  0.23683282    -0.14300
C908        C  0.58133625  0.42626816  0.25643719     0.07800
C909        C  0.58416957  0.40640948  0.23361831    -0.14300
C910        C  0.57952205  0.40438682  0.19207301    -0.14300
C911        C  0.57204114  0.42225410  0.17246822     0.07800
C912        C  0.56910693  0.44198839  0.19541134    -0.14300
H913        H  0.57129335  0.45947842  0.25345731     0.11800
H914        H  0.58992052  0.39237875  0.24785947     0.11800
H915        H  0.58196654  0.38895671  0.17530760     0.11800
H916        H  0.56343452  0.45613233  0.18135015     0.11800
C917        C  0.54438171  0.51548610  0.31187792    -0.14300
C918        C  0.54098470  0.51236614  0.35386924     0.07800
C919        C  0.52534425  0.52250543  0.37322766    -0.14300
C920        C  0.51199524  0.53386649  0.35099864    -0.14300
C921        C  0.51368691  0.53513748  0.30874154     0.07800
C922        C  0.53077803  0.52664273  0.28953325    -0.14300
H923        H  0.55625192  0.50783741  0.29596884     0.11800
H924        H  0.52238673  0.52055510  0.40548804     0.11800
H925        H  0.49915353  0.54033116  0.36693651     0.11800
H926        H  0.53261341  0.52738592  0.25709982     0.11800
C927        C  0.49164124  0.46808428  0.60106524    -0.14300
C928        C  0.49020216  0.46750951  0.55875325     0.07800
C929        C  0.47320647  0.47628824  0.53988724    -0.14300
C930        C  0.45930825  0.48687024  0.56266489    -0.14300
C931        C  0.46229624  0.48913923  0.60478597     0.07800
C932        C  0.47799956  0.47889632  0.62374878    -0.14300
H933        H  0.50438199  0.46134576  0.61674747     0.11800
H934        H  0.47159507  0.47612940  0.50744131     0.11800
H935        H  0.44745837  0.49469519  0.54703317     0.11800
H936        H  0.48065887  0.48023173  0.65607487     0.11800
loop_ 
_geom_bond_atom_site_label_1 
_geom_bond_atom_site_label_2 
_geom_bond_distance 
_geom_bond_site_symmetry_2 
_ccdc_geom_bond_type 
O1           Mg3   2.120       .  S
O1           Mg9   2.131       .  S
O1           C36   1.239       .  S
C2           O15   1.236       .  S
C2           O39   1.267       .  A
C2           H41   1.081       .  S
Mg3          O32   2.157       .  S
Mg3          O47   2.347       .  S
Mg3          O43   2.261       .  S
Mg3          O14   2.319       .  S
O4          Mg46   2.148       .  S
O4          Mg29   2.127       .  S
O4           C25   1.235       .  S
O5           C36   1.272       .  A
O5          Mg29   2.297       .  S
C6            O8   1.272       .  A
C6           O20   1.278       .  A
C6          C918   1.485       .  S
O7           C35   1.274       .  A
O7           Mg9   2.307       .  S
O8          Mg40   2.261       .  S
Mg9          O15   2.102       .  S
Mg9          O23   2.214       .  S
Mg9          O11   2.268       .  S
C10          O48   1.278       .  A
C10          O16   1.275       .  A
C10         C928   1.488       .  S
O11          C18   1.269       .  A
H12          C25   1.081       .  S
C13          O27   1.236       .  S
C13          O28   1.271       .  A
C13          H38   1.081       .  S
O14          C37   1.274       .  A
O15         Mg29   2.137       .  S
O16         Mg46   2.286       .  S
C17          O30   1.275       .  A
C17          O22   1.279       .  A
C17         C898   1.483       .  S
C18          O45   1.276       .  A
C18         C878   1.481       .  S
Mg19         O26   2.172       .  S
Mg19         O27   2.157       .  S
Mg19         O20   2.321       .  S
Mg19         O21   2.288       .  S
Mg19         O48   2.304       .  S
O21          C25   1.268       .  A
O22         Mg29   2.312       .  S
O23          C42   1.265       .  A
O24          C44   1.275       .  A
O24         Mg40   2.304       .  S
O26         Mg40   2.156       .  S
O26          C37   1.237       .  S
O27         Mg46   2.149       .  S
O28         Mg40   2.302       .  S
Mg29         O45   2.289       .  S
O30         Mg46   2.269       .  S
H31          C36   1.081       .  S
O32         Mg40   2.149       .  S
O32          C35   1.239       .  S
H33          C35   1.081       .  S
H34          C37   1.082       .  S
O39         Mg46   2.279       .  S
C42          O47   1.280       .  A
C42         C888   1.483       .  S
O43          C44   1.272       .  A
C44         C908   1.482       .  S
O49         Mg51   2.120       .  S
O49         Mg57   2.132       .  S
O49          C84   1.239       .  S
C50          O63   1.235       .  S
C50          O87   1.267       .  A
C50          H89   1.081       .  S
Mg51         O80   2.153       .  S
Mg51         O95   2.342       .  S
Mg51         O91   2.254       .  S
Mg51         O62   2.320       .  S
O52         Mg94   2.148       .  S
O52         Mg77   2.132       .  S
O52          C73   1.235       .  S
O53          C84   1.272       .  A
O53         Mg77   2.297   1_556  S
C54          O56   1.270       .  A
C54          O68   1.280       .  A
C54         C858   1.485       .  S
O55          C83   1.273       .  A
O55         Mg57   2.307       .  S
O56         Mg88   2.248       .  S
Mg57         O63   2.099   1_556  S
Mg57         O71   2.207       .  S
Mg57         O59   2.277   1_556  S
C58          O96   1.278   1_554  A
C58          O64   1.275       .  A
C58         C868   1.488       .  S
O59          C66   1.270       .  A
H60          C73   1.081       .  S
C61          O75   1.236       .  S
C61          O76   1.271       .  A
C61          H86   1.081   1_556  S
O62          C85   1.274       .  A
O63         Mg77   2.134       .  S
O64         Mg94   2.291       .  S
C65          O78   1.275       .  A
C65          O70   1.278       .  A
C65         C911   1.484       .  S
C66          O93   1.276       .  A
C66         C838   1.482       .  S
Mg67         O74   2.172       .  S
Mg67         O75   2.156       .  S
Mg67         O68   2.334       .  S
Mg67         O69   2.291       .  S
Mg67         O96   2.302       .  S
O69          C73   1.268   1_556  A
O70         Mg77   2.314       .  S
O71          C90   1.265       .  A
O72          C92   1.275       .  A
O72         Mg88   2.309       .  S
O74         Mg88   2.156       .  S
O74          C85   1.237       .  S
O75         Mg94   2.152   1_556  S
O76         Mg88   2.303       .  S
Mg77         O93   2.284       .  S
O78         Mg94   2.266       .  S
H79          C84   1.081       .  S
O80         Mg88   2.147       .  S
O80          C83   1.239       .  S
H81          C83   1.081       .  S
H82          C85   1.082       .  S
O87         Mg94   2.278       .  S
C90          O95   1.279       .  A
C90         C848   1.479       .  S
O91          C92   1.271       .  A
C92         C901   1.482       .  S
O97         Mg99   2.120       .  S
O97        Mg105   2.134       .  S
O97         C132   1.239       .  S
C98         O111   1.235       .  S
C98         O135   1.267       .  A
C98         H137   1.081       .  S
Mg99        O128   2.155       .  S
Mg99        O143   2.350       .  S
Mg99        O139   2.259       .  S
Mg99        O110   2.320       .  S
O100       Mg142   2.148       .  S
O100       Mg125   2.130       .  S
O100        C121   1.235       .  S
O101        C132   1.272       .  A
O101       Mg125   2.297       .  S
C102        O104   1.271       .  A
C102        O116   1.279       .  A
C102        C871   1.486       .  S
O103        C131   1.273       .  A
O103       Mg105   2.305       .  S
O104       Mg136   2.257       .  S
Mg105       O111   2.101       .  S
Mg105       O119   2.214       .  S
Mg105       O107   2.268       .  S
C106        O144   1.278       .  A
C106        O112   1.275       .  A
C106        C921   1.487       .  S
O107        C114   1.270       .  A
H108        C121   1.081       .  S
C109        O123   1.236       .  S
C109        O124   1.271       .  A
C109        H134   1.081       .  S
O110        C133   1.274       .  A
O111       Mg125   2.137       .  S
O112       Mg142   2.290       .  S
C113        O126   1.276       .  A
C113        O118   1.278       .  A
C113        C828   1.485       .  S
C114        O141   1.276       .  A
C114        C798   1.481       .  S
Mg115       O122   2.169       .  S
Mg115       O123   2.156       .  S
Mg115       O116   2.327       .  S
Mg115       O117   2.290       .  S
Mg115       O144   2.297       .  S
O117        C121   1.268       .  A
O118       Mg125   2.313       .  S
O119        C138   1.265       .  A
O120        C140   1.275       .  A
O120       Mg136   2.302       .  S
O122       Mg136   2.154       .  S
O122        C133   1.237       .  S
O123       Mg142   2.151       .  S
O124       Mg136   2.303       .  S
Mg125       O141   2.286       .  S
O126       Mg142   2.272       .  S
H127        C132   1.081       .  S
O128       Mg136   2.148       .  S
O128        C131   1.239       .  S
H129        C131   1.081       .  S
H130        C133   1.082       .  S
O135       Mg142   2.278       .  S
C138        O143   1.280       .  A
C138        C808   1.483       .  S
O139        C140   1.272       .  A
C140        C821   1.482       .  S
O145       Mg147   2.119       .  S
O145       Mg153   2.133       .  S
O145        C180   1.239       .  S
C146        O159   1.235       .  S
C146        O183   1.267       .  A
C146        H185   1.081       .  S
Mg147       O176   2.159       .  S
Mg147       O191   2.348       .  S
Mg147       O187   2.264       .  S
Mg147       O158   2.318       .  S
O148       Mg190   2.147       .  S
O148       Mg173   2.125       .  S
O148        C169   1.234       .  S
O149        C180   1.272       .  A
O149       Mg173   2.296       .  S
C150        O152   1.271       .  A
C150        O164   1.279       .  A
C150        C931   1.485       .  S
O151        C179   1.273       .  A
O151       Mg153   2.303       .  S
O152       Mg184   2.253       .  S
Mg153       O159   2.102       .  S
Mg153       O167   2.207       .  S
Mg153       O155   2.267       .  S
C154        O192   1.279       .  A
C154        O160   1.274       .  A
C154        C861   1.488       .  S
O155        C162   1.269       .  A
H156        C169   1.081       .  S
C157        O171   1.236       .  S
C157        O172   1.271       .  A
C157        H182   1.081       .  S
O158        C181   1.273       .  A
O159       Mg173   2.136       .  S
O160       Mg190   2.283       .  S
C161        O174   1.275       .  A
C161        O166   1.277       .  A
C161        C818   1.482       .  S
C162        O189   1.275       .  A
C162        C778   1.476       .  S
Mg163       O170   2.174       .  S
Mg163       O171   2.157       .  S
Mg163       O164   2.328       .  S
Mg163       O165   2.290       .  S
Mg163       O192   2.306       .  S
O165        C169   1.268       .  A
O166       Mg173   2.305       .  S
O167        C186   1.265       .  A
O168        C188   1.275       .  A
O168       Mg184   2.305       .  S
O170       Mg184   2.156       .  S
O170        C181   1.237       .  S
O171       Mg190   2.152       .  S
O172       Mg184   2.304       .  S
Mg173       O189   2.275       .  S
O174       Mg190   2.270       .  S
H175        C180   1.081       .  S
O176       Mg184   2.147       .  S
O176        C179   1.239       .  S
H177        C179   1.081       .  S
H178        C181   1.082       .  S
O183       Mg190   2.279       .  S
C186        O191   1.280       .  A
C186        C788   1.481       .  S
O187        C188   1.272       .  A
C188        C831   1.483       .  S
O193       Mg195   2.117       .  S
O193       Mg201   2.131       .  S
O193        C228   1.240       .  S
C194        O207   1.236       .  S
C194        O231   1.267       .  A
C194        H233   1.081       .  S
Mg195       O224   2.154       .  S
Mg195       O239   2.348       .  S
Mg195       O235   2.250       .  S
Mg195       O206   2.319       .  S
O196       Mg238   2.146       .  S
O196       Mg221   2.134       .  S
O196        C217   1.235       .  S
O197        C228   1.273       .  A
O197       Mg221   2.303   1_554  S
C198        O200   1.271       .  A
C198        O212   1.280       .  A
C198        C738   1.486       .  S
O199        C227   1.274       .  A
O199       Mg201   2.305       .  S
O200       Mg232   2.251       .  S
Mg201       O207   2.098   1_554  S
Mg201       O215   2.212       .  S
Mg201       O203   2.250   1_554  S
C202        O240   1.279       .  A
C202        O208   1.275       .  A
C202        C771   1.489       .  S
O203        C210   1.267       .  A
H204        C217   1.081       .  S
C205        O219   1.236       .  S
C205        O220   1.271       .  A
C205        H230   1.081   1_554  S
O206        C229   1.273       .  A
O207       Mg221   2.138       .  S
O208       Mg238   2.292       .  S
C209        O222   1.275       .  A
C209        O214   1.281       .  A
C209        C751   1.485       .  S
C210        O237   1.277       .  A
C210        C728   1.477       .  S
Mg211       O218   2.170       .  S
Mg211       O219   2.154       .  S
Mg211       O212   2.334       .  S
Mg211       O213   2.291       .  S
Mg211       O240   2.303   1_554  S
O213        C217   1.269   1_554  A
O214       Mg221   2.330       .  S
O215        C234   1.264       .  A
O216        C236   1.276       .  A
O216       Mg232   2.311       .  S
O218       Mg232   2.155       .  S
O218        C229   1.237       .  S
O219       Mg238   2.151   1_554  S
O220       Mg232   2.302       .  S
Mg221       O237   2.312       .  S
O222       Mg238   2.261       .  S
H223        C228   1.081       .  S
O224       Mg232   2.148       .  S
O224        C227   1.239       .  S
H225        C227   1.081       .  S
H226        C229   1.081       .  S
O231       Mg238   2.278       .  S
C234        O239   1.279       .  A
C234        C811   1.483       .  S
O235        C236   1.271       .  A
C236        C758   1.481       .  S
O241       Mg243   2.117       .  S
O241       Mg249   2.129       .  S
O241        C276   1.239       .  S
C242        O255   1.236       .  S
C242        O279   1.267       .  A
C242        H281   1.081       .  S
Mg243       O272   2.157       .  S
Mg243       O287   2.338       .  S
Mg243       O283   2.252       .  S
Mg243       O254   2.317       .  S
O244       Mg286   2.148       .  S
O244       Mg269   2.132       .  S
O244        C265   1.235       .  S
O245        C276   1.272       .  A
O245       Mg269   2.299       .  S
C246        O248   1.271       .  A
C246        O260   1.279       .  A
C246        C708   1.486       .  S
O247        C275   1.274       .  A
O247       Mg249   2.307       .  S
O248       Mg280   2.256       .  S
Mg249       O255   2.092       .  S
Mg249       O263   2.209       .  S
Mg249       O251   2.248       .  S
C250        O288   1.278       .  A
C250        O256   1.274       .  A
C250        C718   1.486       .  S
O251        C258   1.267       .  A
H252        C265   1.081       .  S
C253        O267   1.237       .  S
C253        O268   1.271       .  A
C253        H278   1.081       .  S
O254        C277   1.272       .  A
O255       Mg269   2.139       .  S
O256       Mg286   2.282       .  S
C257        O270   1.275       .  A
C257        O262   1.280       .  A
C257        C761   1.481       .  S
C258        O285   1.277       .  A
C258        C698   1.479       .  S
Mg259       O266   2.167       .  S
Mg259       O267   2.157       .  S
Mg259       O260   2.328       .  S
Mg259       O261   2.289       .  S
Mg259       O288   2.300       .  S
O261        C265   1.268       .  A
O262       Mg269   2.317       .  S
O263        C282   1.264       .  A
O264        C284   1.277       .  A
O264       Mg280   2.318       .  S
O266       Mg280   2.153       .  S
O266        C277   1.236       .  S
O267       Mg286   2.156       .  S
O268       Mg280   2.306       .  S
Mg269       O285   2.318       .  S
O270       Mg286   2.265       .  S
H271        C276   1.081       .  S
O272       Mg280   2.147       .  S
O272        C275   1.240       .  S
H273        C275   1.081       .  S
H274        C277   1.081       .  S
O279       Mg286   2.277       .  S
C282        O287   1.278       .  A
C282        C791   1.481       .  S
O283        C284   1.271       .  A
C284        C748   1.484       .  S
O289       Mg291   2.118       .  S
O289       Mg297   2.130       .  S
O289        C324   1.240       .  S
C290        O303   1.235       .  S
C290        O327   1.267       .  A
C290        H329   1.081       .  S
Mg291       O320   2.154       .  S
Mg291       O335   2.344       .  S
Mg291       O331   2.255       .  S
Mg291       O302   2.319       .  S
O292       Mg334   2.147       .  S
O292       Mg317   2.131       .  S
O292        C313   1.235       .  S
O293        C324   1.273       .  A
O293       Mg317   2.303       .  S
C294        O296   1.271       .  A
C294        O308   1.279       .  A
C294        C721   1.484       .  S
O295        C323   1.274       .  A
O295       Mg297   2.305       .  S
O296       Mg328   2.248       .  S
Mg297       O303   2.095       .  S
Mg297       O311   2.211       .  S
Mg297       O299   2.246       .  S
C298        O336   1.279       .  A
C298        O304   1.274       .  A
C298        C741   1.489       .  S
O299        C306   1.267       .  A
H300        C313   1.081       .  S
C301        O315   1.236       .  S
C301        O316   1.271       .  A
C301        H326   1.081       .  S
O302        C325   1.273       .  A
O303       Mg317   2.137       .  S
O304       Mg334   2.282       .  S
C305        O318   1.274       .  A
C305        O310   1.281       .  A
C305        C688   1.483       .  S
C306        O333   1.277       .  A
C306        C668   1.473       .  S
Mg307       O314   2.173       .  S
Mg307       O315   2.154       .  S
Mg307       O308   2.328       .  S
Mg307       O309   2.290       .  S
Mg307       O336   2.309       .  S
O309        C313   1.268       .  A
O310       Mg317   2.327       .  S
O311        C330   1.264       .  A
O312        C332   1.277       .  A
O312       Mg328   2.321       .  S
O314       Mg328   2.155       .  S
O314        C325   1.236       .  S
O315       Mg334   2.151       .  S
O316       Mg328   2.305       .  S
Mg317       O333   2.310       .  S
O318       Mg334   2.259       .  S
H319        C324   1.081       .  S
O320       Mg328   2.146       .  S
O320        C323   1.240       .  S
H321        C323   1.081       .  S
H322        C325   1.081       .  S
O327       Mg334   2.276       .  S
C330        O335   1.279       .  A
C330        C891   1.481       .  S
O331        C332   1.271       .  A
C332        C678   1.485       .  S
O337       Mg339   2.115       .  S
O337       Mg345   2.128       .  S
O337        C372   1.240       .  S
C338        O351   1.235       .  S
C338        O375   1.267       .  A
C338        H377   1.081       .  S
Mg339       O368   2.153       .  S
Mg339       O383   2.336       .  S
Mg339       O379   2.246       .  S
Mg339       O350   2.319       .  S
O340       Mg382   2.149       .  S
O340       Mg365   2.140       .  S
O340        C361   1.235       .  S
O341        C372   1.273       .  A
O341       Mg365   2.300       .  S
C342        O344   1.271       .  A
C342        O356   1.280       .  A
C342        C768   1.487       .  S
O343        C371   1.275       .  A
O343       Mg345   2.308       .  S
O344       Mg376   2.251       .  S
Mg345       O351   2.090       .  S
Mg345       O359   2.206       .  S
Mg345       O347   2.257       .  S
C346        O384   1.278       .  A
C346        O352   1.275       .  A
C346        C711   1.488       .  S
O347        C354   1.268       .  A
H348        C361   1.081       .  S
C349        O363   1.237       .  S
C349        O364   1.272       .  A
C349        H374   1.081       .  S
O350        C373   1.273       .  A
O351       Mg365   2.134       .  S
O352       Mg382   2.289       .  S
C353        O366   1.276       .  A
C353        O358   1.281       .  A
C353        C681   1.484       .  S
C354        O381   1.278       .  A
C354        C658   1.481       .  S
Mg355       O362   2.166       .  S
Mg355       O363   2.156       .  S
Mg355       O356   2.339       .  S
Mg355       O357   2.293       .  S
Mg355       O384   2.301       .  S
O357        C361   1.269       .  A
O358       Mg365   2.329       .  S
O359        C378   1.264       .  A
O360        C380   1.277       .  A
O360       Mg376   2.320       .  S
O362       Mg376   2.151       .  S
O362        C373   1.237       .  S
O363       Mg382   2.160       .  S
O364       Mg376   2.308       .  S
Mg365       O381   2.322       .  S
O366       Mg382   2.268       .  S
H367        C372   1.081       .  S
O368       Mg376   2.146       .  S
O368        C371   1.240       .  S
H369        C371   1.081       .  S
H370        C373   1.081       .  S
O375       Mg382   2.276       .  S
C378        O383   1.277       .  A
C378        C851   1.479       .  S
O379        C380   1.270       .  A
C380        C691   1.483       .  S
O385       Mg387   2.122       .  S
O385       Mg393   2.124       .  S
O385        C420   1.240       .  S
C386        O399   1.235       .  S
C386        O423   1.266       .  A
C386        H425   1.081       .  S
Mg387       O416   2.154       .  S
Mg387       O431   2.361       .  S
Mg387       O427   2.255   1_554  S
Mg387       O398   2.322       .  S
O388       Mg430   2.147       .  S
O388       Mg413   2.129       .  S
O388        C409   1.235       .  S
O389        C420   1.273       .  A
O389       Mg413   2.303       .  S
C390        O392   1.271       .  A
C390        O404   1.280       .  A
C390        C648   1.488       .  S
O391        C419   1.274       .  A
O391       Mg393   2.304       .  S
O392       Mg424   2.253       .  S
Mg393       O399   2.087       .  S
Mg393       O407   2.189       .  S
Mg393       O395   2.239       .  S
C394        O432   1.278       .  A
C394        O400   1.275       .  A
C394        C638   1.487       .  S
O395        C402   1.266       .  A
H396        C409   1.081       .  S
C397        O411   1.236       .  S
C397        O412   1.271       .  A
C397        H422   1.081       .  S
O398        C421   1.274       .  A
O399       Mg413   2.135       .  S
O400       Mg430   2.286       .  S
C401        O414   1.277       .  A
C401        O406   1.281       .  A
C401        C628   1.485       .  S
C402        O429   1.277       .  A
C402        C671   1.478       .  S
Mg403       O410   2.172       .  S
Mg403       O411   2.159       .  S
Mg403       O404   2.336       .  S
Mg403       O405   2.290       .  S
Mg403       O432   2.301       .  S
O405        C409   1.268       .  A
O406       Mg413   2.326       .  S
O407        C426   1.262       .  A
O408        C428   1.275       .  A
O408       Mg424   2.307   1_556  S
O410       Mg424   2.156       .  S
O410        C421   1.237       .  S
O411       Mg430   2.159       .  S
O412       Mg424   2.304       .  S
Mg413       O429   2.313       .  S
O414       Mg430   2.273       .  S
H415        C420   1.081       .  S
O416       Mg424   2.142       .  S
O416        C419   1.240       .  S
H417        C419   1.081       .  S
H418        C421   1.081       .  S
O423       Mg430   2.275       .  S
C426        O431   1.279       .  A
C426        C841   1.473       .  S
O427        C428   1.272       .  A
C428        C621   1.481       .  S
O433       Mg435   2.119       .  S
O433       Mg441   2.125       .  S
O433        C468   1.242       .  S
C434        O471   1.264       .  A
C434        H473   1.082       .  S
C434        O447   1.262       .  A
Mg435       O464   2.152       .  S
Mg435       O479   2.369       .  S
Mg435       O475   2.262       .  S
Mg435       O446   2.327       .  S
O436       Mg478   2.163       .  S
O436       Mg461   2.131       .  S
O436        C457   1.235       .  S
O437        C468   1.276       .  A
O437       Mg461   2.306       .  S
C438        O440   1.270       .  A
C438        O452   1.280       .  A
C438        C608   1.486       .  S
O439        C467   1.273       .  A
O439       Mg441   2.305       .  S
O440       Mg472   2.249       .  S
Mg441       O455   2.180       .  S
Mg441       O443   2.262       .  S
Mg441       O447   2.146       .  S
C442        O480   1.279       .  A
C442        O448   1.274       .  A
C442        C598   1.488       .  S
O443        C450   1.269       .  A
H444        C457   1.081       .  S
C445        O459   1.237       .  S
C445        O460   1.272       .  A
C445        H470   1.081       .  S
O446        C469   1.275       .  A
O447       Mg461   2.195       .  S
O448       Mg478   2.284       .  S
C449        O462   1.277       .  A
C449        O454   1.280       .  A
C449        C618   1.482       .  S
C450        O477   1.278       .  A
C450        C661   1.480       .  S
Mg451       O458   2.178       .  S
Mg451       O459   2.157       .  S
Mg451       O452   2.339       .  S
Mg451       O453   2.291       .  S
Mg451       O480   2.306       .  S
O453        C457   1.268       .  A
O454       Mg461   2.311       .  S
O455        C474   1.262       .  A
O456        C476   1.276       .  A
O456       Mg472   2.312       .  S
O458       Mg472   2.153       .  S
O458        C469   1.238       .  S
O459       Mg478   2.163       .  S
O460       Mg472   2.308       .  S
Mg461       O477   2.319       .  S
O462       Mg478   2.270       .  S
H463        C468   1.081       .  S
O464       Mg472   2.144       .  S
O464        C467   1.239       .  S
H465        C467   1.081       .  S
H466        C469   1.081       .  S
O471       Mg478   2.283       .  S
C474        O479   1.281       .  A
C474        C881   1.474       .  S
O475        C476   1.272       .  A
C476        C631   1.485       .  S
O481       Mg483   2.119       .  S
O481       Mg489   2.123       .  S
O481        C516   1.240       .  S
C482        O495   1.235       .  S
C482        O519   1.266       .  A
C482        H521   1.081       .  S
Mg483       O512   2.150       .  S
Mg483       O527   2.354       .  S
Mg483       O523   2.250       .  S
Mg483       O494   2.324       .  S
O484       Mg526   2.149       .  S
O484       Mg509   2.137       .  S
O484        C505   1.236       .  S
O485        C516   1.274       .  A
O485       Mg509   2.304       .  S
C486        O488   1.271       .  A
C486        O500   1.280       .  A
C486        C641   1.486       .  S
O487        C515   1.274       .  A
O487       Mg489   2.305       .  S
O488       Mg520   2.250       .  S
Mg489       O495   2.084       .  S
Mg489       O503   2.191       .  S
Mg489       O491   2.251       .  S
C490        O528   1.278       .  A
C490        O496   1.274       .  A
C490        C611   1.488       .  S
O491        C498   1.267       .  A
H492        C505   1.081       .  S
C493        O507   1.236       .  S
C493        O508   1.271       .  A
C493        H518   1.081       .  S
O494        C517   1.274       .  A
O495       Mg509   2.130       .  S
O496       Mg526   2.285       .  S
C497        O510   1.276       .  A
C497        O502   1.282       .  A
C497        C578   1.487       .  S
C498        O525   1.278       .  A
C498        C701   1.478       .  S
Mg499       O506   2.172       .  S
Mg499       O507   2.153       .  S
Mg499       O500   2.335       .  S
Mg499       O501   2.293       .  S
Mg499       O528   2.305       .  S
O501        C505   1.269       .  A
O502       Mg509   2.333       .  S
O503        C522   1.262       .  A
O504        C524   1.276       .  A
O504       Mg520   2.313       .  S
O506       Mg520   2.153       .  S
O506        C517   1.238       .  S
O507       Mg526   2.158       .  S
O508       Mg520   2.306       .  S
Mg509       O525   2.319       .  S
O510       Mg526   2.271       .  S
H511        C516   1.081       .  S
O512       Mg520   2.141       .  S
O512        C515   1.240       .  S
H513        C515   1.081       .  S
H514        C517   1.081       .  S
O519       Mg526   2.273       .  S
C522        O527   1.278       .  A
C522        C801   1.470       .  S
O523        C524   1.271       .  A
C524        C588   1.481       .  S
O529       Mg531   2.124       .  S
O529       Mg537   2.122       .  S
O529        C564   1.242       .  S
C530        O567   1.264       .  A
C530        H569   1.082       .  S
C530        O543   1.261       .  A
Mg531       O560   2.149       .  S
Mg531       O575   2.368       .  S
Mg531       O571   2.263       .  S
Mg531       O542   2.327       .  S
O532       Mg574   2.162       .  S
O532       Mg557   2.127       .  S
O532        C553   1.235       .  S
O533        C564   1.276       .  A
O533       Mg557   2.310       .  S
C534        O536   1.270       .  A
C534        O548   1.280       .  A
C534        C601   1.485       .  S
O535        C563   1.273       .  A
O535       Mg537   2.305       .  S
O536       Mg568   2.246       .  S
Mg537       O551   2.170       .  S
Mg537       O539   2.252       .  S
Mg537       O543   2.146       .  S
C538        O576   1.280       .  A
C538        O544   1.273       .  A
C538        C651   1.490       .  S
O539        C546   1.267       .  A
H540        C553   1.081       .  S
C541        O555   1.237       .  S
C541        O556   1.272       .  A
C541        H566   1.081       .  S
O542        C565   1.275       .  A
O543       Mg557   2.197       .  S
O544       Mg574   2.276       .  S
C545        O558   1.276       .  A
C545        O550   1.280       .  A
C545        C591   1.480       .  S
C546        O573   1.276       .  A
C546        C731   1.477       .  S
Mg547       O554   2.184       .  S
Mg547       O555   2.160       .  S
Mg547       O548   2.336       .  S
Mg547       O549   2.289       .  S
Mg547       O576   2.318       .  S
O549        C553   1.268       .  A
O550       Mg557   2.316   1_554  S
O551        C570   1.261       .  A
O552        C572   1.277       .  A
O552       Mg568   2.325       .  S
O554       Mg568   2.153       .  S
O554        C565   1.238       .  S
O555       Mg574   2.163       .  S
O556       Mg568   2.310       .  S
Mg557       O573   2.314       .  S
O558       Mg574   2.264   1_554  S
H559        C564   1.081       .  S
O560       Mg568   2.142       .  S
O560        C563   1.239       .  S
H561        C563   1.081       .  S
H562        C565   1.081       .  S
O567       Mg574   2.284       .  S
C570        O575   1.280       .  A
C570        C781   1.472       .  S
O571        C572   1.272       .  A
C572        C581   1.488       .  S
C577        H583   1.083       .  S
C577        C578   1.408       .  A
C577        C582   1.399       .  A
C578        C579   1.406       .  A
C579        H584   1.083       .  S
C579        C580   1.401       .  A
C580        H585   1.083       .  S
C580        C581   1.408       .  A
C581        C582   1.406       .  A
C582        H586   1.083       .  S
C587        H593   1.083       .  S
C587        C588   1.407       .  A
C587        C592   1.398       .  A
C588        C589   1.405       .  A
C589        H594   1.083       .  S
C589        C590   1.396       .  A
C590        H595   1.083       .  S
C590        C591   1.406       .  A
C591        C592   1.405       .  A
C592        H596   1.083       .  S
C597        H603   1.083       .  S
C597        C598   1.404   1_565  A
C597        C602   1.401       .  A
C598        C599   1.411       .  A
C599        H604   1.083       .  S
C599        C600   1.399   1_545  A
C600        H605   1.083       .  S
C600        C601   1.403       .  A
C601        C602   1.410       .  A
C602        H606   1.083       .  S
C607        H613   1.083       .  S
C607        C608   1.410       .  A
C607        C612   1.402       .  A
C608        C609   1.403       .  A
C609        H614   1.083   1_545  S
C609        C610   1.399   1_545  A
C610        H615   1.083       .  S
C610        C611   1.410       .  A
C611        C612   1.405   1_565  A
C612        H616   1.083       .  S
C617        H623   1.083       .  S
C617        C618   1.406       .  A
C617        C622   1.398       .  A
C618        C619   1.406       .  A
C619        H624   1.083       .  S
C619        C620   1.397       .  A
C620        H625   1.083       .  S
C620        C621   1.406       .  A
C621        C622   1.406       .  A
C622        H626   1.083       .  S
C627        H633   1.083       .  S
C627        C628   1.407       .  A
C627        C632   1.398       .  A
C628        C629   1.406       .  A
C629        H634   1.083       .  S
C629        C630   1.400       .  A
C630        H635   1.083       .  S
C630        C631   1.407       .  A
C631        C632   1.406       .  A
C632        H636   1.083       .  S
C637        H643   1.083       .  S
C637        C638   1.404   1_565  A
C637        C642   1.401       .  A
C638        C639   1.410       .  A
C639        H644   1.083       .  S
C639        C640   1.398   1_545  A
C640        H645   1.083       .  S
C640        C641   1.403       .  A
C641        C642   1.409       .  A
C642        H646   1.083       .  S
C647        H653   1.083       .  S
C647        C648   1.411   1_556  A
C647        C652   1.403       .  A
C648        C649   1.403       .  A
C649        H654   1.083   1_545  S
C649        C650   1.398   1_545  A
C650        H655   1.083       .  S
C650        C651   1.411   1_554  A
C651        C652   1.404   1_565  A
C652        H656   1.083       .  S
C657        H663   1.083       .  S
C657        C658   1.399       .  A
C657        C662   1.401       .  A
C658        C659   1.412       .  A
C659        H664   1.083       .  S
C659        C660   1.401       .  A
C660        H665   1.083       .  S
C660        C661   1.399       .  A
C661        C662   1.411       .  A
C662        H666   1.084       .  S
C667        H673   1.083       .  S
C667        C668   1.397       .  A
C667        C672   1.398       .  A
C668        C669   1.411       .  A
C669        H674   1.084       .  S
C669        C670   1.399       .  A
C670        H675   1.083       .  S
C670        C671   1.398       .  A
C671        C672   1.412       .  A
C672        H676   1.083       .  S
C677        H683   1.083       .  S
C677        C678   1.405       .  A
C677        C682   1.398       .  A
C678        C679   1.408       .  A
C679        H684   1.083       .  S
C679        C680   1.400       .  A
C680        H685   1.083       .  S
C680        C681   1.405       .  A
C681        C682   1.407       .  A
C682        H686   1.083       .  S
C687        H693   1.083       .  S
C687        C688   1.405       .  A
C687        C692   1.399       .  A
C688        C689   1.408       .  A
C689        H694   1.083       .  S
C689        C690   1.398       .  A
C690        H695   1.083   1_554  S
C690        C691   1.405   1_554  A
C691        C692   1.408   1_556  A
C692        H696   1.083   1_554  S
C697        H703   1.084       .  S
C697        C698   1.412       .  A
C697        C702   1.399       .  A
C698        C699   1.399       .  A
C699        H704   1.083       .  S
C699        C700   1.401       .  A
C700        H705   1.084       .  S
C700        C701   1.412       .  A
C701        C702   1.398       .  A
C702        H706   1.083       .  S
C707        H713   1.083       .  S
C707        C708   1.409       .  A
C707        C712   1.401       .  A
C708        C709   1.404       .  A
C709        H714   1.083   1_455  S
C709        C710   1.398   1_455  A
C710        H715   1.083       .  S
C710        C711   1.410       .  A
C711        C712   1.405   1_655  A
C712        H716   1.083       .  S
C717        H723   1.083       .  S
C717        C718   1.410       .  A
C717        C722   1.398   1_455  A
C718        C719   1.404   1_455  A
C719        H724   1.083       .  S
C719        C720   1.400       .  A
C720        H725   1.083       .  S
C720        C721   1.409       .  A
C721        C722   1.403       .  A
C722        H726   1.083   1_655  S
C727        H733   1.083       .  S
C727        C728   1.398       .  A
C727        C732   1.399       .  A
C728        C729   1.412       .  A
C729        H734   1.084   1_556  S
C729        C730   1.399       .  A
C730        H735   1.083   1_556  S
C730        C731   1.398       .  A
C731        C732   1.411       .  A
C732        H736   1.084       .  S
C737        H743   1.083       .  S
C737        C738   1.410       .  A
C737        C742   1.402       .  A
C738        C739   1.403       .  A
C739        H744   1.083   1_455  S
C739        C740   1.399   1_455  A
C740        H745   1.083       .  S
C740        C741   1.411       .  A
C741        C742   1.404   1_655  A
C742        H746   1.083       .  S
C747        H753   1.083       .  S
C747        C748   1.408       .  A
C747        C752   1.400       .  A
C748        C749   1.405       .  A
C749        H754   1.083       .  S
C749        C750   1.397       .  A
C750        H755   1.083       .  S
C750        C751   1.408       .  A
C751        C752   1.405       .  A
C752        H756   1.083       .  S
C757        H763   1.083       .  S
C757        C758   1.406       .  A
C757        C762   1.398       .  A
C758        C759   1.406       .  A
C759        H764   1.083       .  S
C759        C760   1.397       .  A
C760        H765   1.083       .  S
C760        C761   1.404       .  A
C761        C762   1.407       .  A
C762        H766   1.083       .  S
C767        H773   1.083       .  S
C767        C768   1.410       .  A
C767        C772   1.401       .  A
C768        C769   1.404       .  A
C769        H774   1.083   1_655  S
C769        C770   1.400   1_655  A
C770        H775   1.083       .  S
C770        C771   1.410       .  A
C771        C772   1.405   1_455  A
C772        H776   1.083       .  S
C777        H783   1.083       .  S
C777        C778   1.398       .  A
C777        C782   1.390       .  A
C778        C779   1.413       .  A
C779        H784   1.083       .  S
C779        C780   1.402       .  A
C780        H785   1.083       .  S
C780        C781   1.399       .  A
C781        C782   1.408       .  A
C782        H786   1.084       .  S
C787        H793   1.083       .  S
C787        C788   1.411       .  A
C787        C792   1.397       .  A
C788        C789   1.400       .  A
C789        H794   1.083       .  S
C789        C790   1.398       .  A
C790        H795   1.083       .  S
C790        C791   1.412       .  A
C791        C792   1.400       .  A
C792        H796   1.083       .  S
C797        H803   1.083       .  S
C797        C798   1.401       .  A
C797        C802   1.393       .  A
C798        C799   1.413       .  A
C799        H804   1.083       .  S
C799        C800   1.402       .  A
C800        H805   1.083       .  S
C800        C801   1.399       .  A
C801        C802   1.406       .  A
C802        H806   1.084       .  S
C807        H813   1.083       .  S
C807        C808   1.412       .  A
C807        C812   1.399       .  A
C808        C809   1.401       .  A
C809        H814   1.083       .  S
C809        C810   1.398       .  A
C810        H815   1.083       .  S
C810        C811   1.411       .  A
C811        C812   1.400       .  A
C812        H816   1.083       .  S
C817        H823   1.083       .  S
C817        C818   1.406       .  A
C817        C822   1.397       .  A
C818        C819   1.406       .  A
C819        H824   1.083       .  S
C819        C820   1.398       .  A
C820        H825   1.083       .  S
C820        C821   1.406   1_556  A
C821        C822   1.406   1_554  A
C822        H826   1.083   1_556  S
C827        H833   1.083       .  S
C827        C828   1.407       .  A
C827        C832   1.400       .  A
C828        C829   1.406       .  A
C829        H834   1.083       .  S
C829        C830   1.397       .  A
C830        H835   1.083       .  S
C830        C831   1.406       .  A
C831        C832   1.406       .  A
C832        H836   1.083       .  S
C837        H843   1.083   1_554  S
C837        C838   1.414       .  A
C837        C842   1.404       .  A
C838        C839   1.400       .  A
C839        H844   1.083       .  S
C839        C840   1.392       .  A
C840        H845   1.084       .  S
C840        C841   1.407       .  A
C841        C842   1.400       .  A
C842        H846   1.083       .  S
C847        H853   1.083       .  S
C847        C848   1.411       .  A
C847        C852   1.396       .  A
C848        C849   1.400       .  A
C849        H854   1.083       .  S
C849        C850   1.397       .  A
C850        H855   1.083       .  S
C850        C851   1.411       .  A
C851        C852   1.400       .  A
C852        H856   1.083       .  S
C857        H863   1.083       .  S
C857        C858   1.410       .  A
C857        C862   1.401       .  A
C858        C859   1.403       .  A
C859        H864   1.083       .  S
C859        C860   1.399       .  A
C860        H865   1.083       .  S
C860        C861   1.411       .  A
C861        C862   1.404       .  A
C862        H866   1.083       .  S
C867        H873   1.083       .  S
C867        C868   1.405       .  A
C867        C872   1.401       .  A
C868        C869   1.410       .  A
C869        H874   1.083       .  S
C869        C870   1.399       .  A
C870        H875   1.083       .  S
C870        C871   1.404       .  A
C871        C872   1.409       .  A
C872        H876   1.083       .  S
C877        H883   1.083       .  S
C877        C878   1.413       .  A
C877        C882   1.402       .  A
C878        C879   1.399       .  A
C879        H884   1.083       .  S
C879        C880   1.393       .  A
C880        H885   1.084       .  S
C880        C881   1.409       .  A
C881        C882   1.399       .  A
C882        H886   1.083       .  S
C887        H893   1.083       .  S
C887        C888   1.412       .  A
C887        C892   1.398       .  A
C888        C889   1.401       .  A
C889        H894   1.083       .  S
C889        C890   1.398       .  A
C890        H895   1.083       .  S
C890        C891   1.411       .  A
C891        C892   1.400       .  A
C892        H896   1.083       .  S
C897        H903   1.083       .  S
C897        C898   1.407       .  A
C897        C902   1.398       .  A
C898        C899   1.406       .  A
C899        H904   1.083       .  S
C899        C900   1.397       .  A
C900        H905   1.083       .  S
C900        C901   1.406       .  A
C901        C902   1.406       .  A
C902        H906   1.083       .  S
C907        H913   1.083       .  S
C907        C908   1.405       .  A
C907        C912   1.396       .  A
C908        C909   1.407       .  A
C909        H914   1.083       .  S
C909        C910   1.400       .  A
C910        H915   1.083       .  S
C910        C911   1.407       .  A
C911        C912   1.406       .  A
C912        H916   1.083       .  S
C917        H923   1.083       .  S
C917        C918   1.409       .  A
C917        C922   1.402       .  A
C918        C919   1.404       .  A
C919        H924   1.083       .  S
C919        C920   1.397       .  A
C920        H925   1.083       .  S
C920        C921   1.409       .  A
C921        C922   1.405       .  A
C922        H926   1.083       .  S
C927        H933   1.083       .  S
C927        C928   1.410       .  A
C927        C932   1.398       .  A
C928        C929   1.405       .  A
C929        H934   1.083       .  S
C929        C930   1.402       .  A
C930        H935   1.083       .  S
C930        C931   1.410       .  A
C931        C932   1.403       .  A
C932        H936   1.083       .  S
