geometry optimzed in LAMMPS
_audit_creation_date              2020-12-01 
_audit_creation_method            'lammps2cif' 
_symmetry_space_group_name_H-M    'P1' 
_symmetry_Int_Tables_number       1 
_symmetry_cell_setting            triclinic 
loop_ 
_symmetry_equiv_pos_as_xyz 
  x,y,z 
_cell_length_a                    34.10050074 
_cell_length_b                    34.31078278636378 
_cell_length_c                    34.160816855655135 
_cell_angle_alpha                 91.00316394043972 
_cell_angle_beta                  90.41465327388855 
_cell_angle_gamma                 89.68227669299466 
loop_ 
_atom_site_label 
_atom_site_type_symbol 
_atom_site_fract_x 
_atom_site_fract_y 
_atom_site_fract_z 
_atom_site_charge 
C1          C  0.74801765  0.00791526  0.01376596    -0.02900
C2          C  0.72655591  0.71957097  0.72180439    -0.02900
C3          C  0.03671745  0.99348294  0.71271206    -0.02900
C4          C  0.24758077  0.20152483  0.73283701    -0.02900
Zn5        Zn  0.48404510  0.19099638  0.71591755     1.49700
Zn6        Zn  0.54859610  0.24730571  0.70221282     1.49400
Zn7        Zn  0.48741844  0.26030765  0.77445549     1.49100
Zn8        Zn  0.55086003  0.18880453  0.77168433     1.49500
O9          O  0.51902780  0.22455001  0.74326183    -1.84500
O10         O  0.46602313  0.21580298  0.66732799    -0.75100
O11         O  0.54582615  0.30359770  0.70686514    -0.74900
O12         O  0.42757573  0.24554239  0.75874461    -0.74500
O13         O  0.52227857  0.24131509  0.64883955    -0.75100
O14         O  0.43702668  0.18291595  0.74623440    -0.74700
O15         O  0.50504132  0.31770826  0.75586313    -0.75300
O16         O  0.54723119  0.19974729  0.82675669    -0.74700
O17         O  0.60641184  0.23741101  0.71194583    -0.75500
O18         O  0.50266048  0.24707123  0.83430064    -0.74900
O19         O  0.60726203  0.19735918  0.76260742    -0.75300
O20         O  0.52971827  0.13473165  0.76635666    -0.75200
O21         O  0.50384594  0.13761902  0.70737437    -0.75000
C22         C  0.48598023  0.23407683  0.64262040     0.76800
C23         C  0.52820732  0.32833991  0.72816198     0.77300
C24         C  0.41384145  0.21141596  0.74999286     0.76200
C25         C  0.52748501  0.22230057  0.84852200     0.76600
C26         C  0.62465669  0.21993653  0.73948189     0.77700
C27         C  0.51050679  0.11888395  0.73838351     0.76800
C28         C  0.53389052  0.49323764  0.70728542    -0.02900
C29         C  0.54674804  0.22638773  0.01459816    -0.02900
Zn30       Zn  0.78759154  0.76093551  0.96762557     1.49700
Zn31       Zn  0.78587043  0.68823543  0.02687037     1.49400
Zn32       Zn  0.72690918  0.75673844  0.03820144     1.49100
Zn33       Zn  0.71999026  0.69567691  0.96706901     1.49500
O34         O  0.75544749  0.72669601  0.99912873    -1.84500
O35         O  0.84616708  0.75143896  0.98442549    -0.75100
O36         O  0.78028068  0.68864306  0.08489070    -0.74900
O37         O  0.73514560  0.81354636  0.03535351    -0.74500
O38         O  0.83916574  0.70234247  0.02530922    -0.75100
O39         O  0.77134806  0.81786557  0.98212963    -0.74700
O40         O  0.74720540  0.74439794  0.09203790    -0.75300
O41         O  0.66400059  0.71014464  0.97790897    -0.74700
O42         O  0.78904005  0.63747521  0.99872647    -0.75500
O43         O  0.66912582  0.75469078  0.02561481    -0.74900
O44         O  0.73683592  0.63908203  0.96022955    -0.75300
O45         O  0.72420457  0.71033864  0.91239191    -0.75200
O46         O  0.77568068  0.74944227  0.90772013    -0.75000
C47         C  0.86033983  0.72663115  0.00855917     0.76800
C48         C  0.76867061  0.71736983  0.10584780     0.77300
C49         C  0.75153886  0.83405016  0.00994524     0.76200
C50         C  0.64925032  0.73777912  0.99850323     0.76600
C51         C  0.76842683  0.62252633  0.97138879     0.77700
C52         C  0.74771912  0.72951148  0.89196309     0.76800
C53         C  0.89150513  0.35528015  0.86002880    -0.02900
C54         C  0.98936891  0.45923401  0.75025302    -0.02900
C55         C  0.79836059  0.46929433  0.96772976    -0.02900
C56         C  0.24999457  0.99972254  0.50637532    -0.02900
C57         C  0.14577668  0.10364992  0.61720964    -0.02900
C58         C  0.02473197  0.72328053  0.00634243    -0.02900
C59         C  0.24881153  0.53155207  0.00266119    -0.02900
C60         C  0.23825560  0.72566224  0.21383141    -0.02900
C61         C  0.13201807  0.62070767  0.10894420    -0.02900
C62         C  0.54152820  0.73154181  0.50991285    -0.02900
Zn63       Zn  0.29459386  0.76098578  0.45533290     1.49700
Zn64       Zn  0.22592144  0.75793098  0.51961117     1.49400
Zn65       Zn  0.22834570  0.69405817  0.45538893     1.49100
Zn66       Zn  0.29226802  0.69578655  0.52116698     1.49500
O67         O  0.26129317  0.72797108  0.48715965    -1.84500
O68         O  0.28077245  0.81858149  0.46942677    -0.75100
O69         O  0.17213381  0.76159667  0.49380620    -0.74900
O70         O  0.23836539  0.70373136  0.40129180    -0.74500
O71         O  0.24080096  0.81189476  0.52003038    -0.75100
O72         O  0.28520042  0.74785734  0.39585135    -0.74700
O73         O  0.17086841  0.70862317  0.45603880    -0.75300
O74         O  0.28977992  0.64027282  0.50419525    -0.74700
O75         O  0.23233724  0.74780686  0.57722009    -0.75500
O76         O  0.24631916  0.63810336  0.45578485    -0.74900
O77         O  0.28598372  0.71054735  0.57749357    -0.75300
O78         O  0.34783908  0.70456097  0.51574579    -0.75200
O79         O  0.35211800  0.74973013  0.47083685    -0.75000
C80         C  0.26023004  0.83297718  0.49754053     0.76800
C81         C  0.15517253  0.74051953  0.46772816     0.77300
C82         C  0.26058399  0.72382835  0.38051135     0.76200
C83         C  0.27398739  0.62244320  0.47529835     0.76600
C84         C  0.26158284  0.73268115  0.59499212     0.77700
C85         C  0.36832414  0.72666118  0.49540840     0.76800
Zn86       Zn  0.23058021  0.51058330  0.70963523     1.49700
Zn87       Zn  0.23228567  0.44691491  0.77719757     1.49400
Zn88       Zn  0.29357809  0.44199903  0.71285716     1.49100
Zn89       Zn  0.29668321  0.51050767  0.77681922     1.49500
O90         O  0.26314710  0.47866249  0.74322337    -1.84500
O91         O  0.17394843  0.48804268  0.71439786    -0.75100
O92         O  0.24609606  0.39088157  0.77864045    -0.74900
O93         O  0.28305618  0.44491537  0.65704660    -0.74500
O94         O  0.17964403  0.44170912  0.75828524    -0.75100
O95         O  0.24930493  0.49988077  0.65252593    -0.74700
O96         O  0.28053270  0.38678252  0.72376502    -0.75300
O97         O  0.35432832  0.50233630  0.76208944    -0.74700
O98         O  0.22486233  0.47306448  0.82802407    -0.75500
O99         O  0.34950465  0.45755405  0.71454757    -0.74900
O100        O  0.27653887  0.51179517  0.83344078    -0.75300
O101        O  0.28925788  0.56616648  0.76592940    -0.75200
O102        O  0.23723358  0.57068661  0.72662820    -0.75000
C103        C  0.15922442  0.45986970  0.73387930     0.76800
C104        C  0.26079920  0.37114223  0.75056547     0.77300
C105        C  0.26829341  0.47138064  0.63647532     0.76200
C106        C  0.36915522  0.48340737  0.73310222     0.76600
C107        C  0.24436572  0.49852539  0.84685307     0.77700
C108        C  0.26399203  0.58664222  0.74832165     0.76800
Zn109      Zn  0.97647251  0.69246657  0.70086206     1.49700
Zn110      Zn  0.04050298  0.75336484  0.69798872     1.49400
Zn111      Zn  0.97686493  0.76462595  0.76298668     1.49100
Zn112      Zn  0.04268764  0.69679790  0.76460955     1.49500
O113        O  0.00730949  0.72682153  0.73313494    -1.84500
O114        O  0.98050772  0.70859087  0.64504515    -0.75100
O115        O  0.02178060  0.80603761  0.68756590    -0.74900
O116        O  0.91771382  0.75373502  0.74824322    -0.74500
O117        O  0.04119518  0.73032208  0.64438473    -0.75100
O118        O  0.92150965  0.70071070  0.71061398    -0.74700
O119        O  0.99833416  0.82004060  0.74657328    -0.75300
O120        O  0.02891366  0.70368246  0.81820271    -0.74700
O121        O  0.09233486  0.76239266  0.72386302    -0.75500
O122        O  0.98685132  0.75329593  0.82274825    -0.74900
O123        O  0.09835619  0.71644407  0.76776777    -0.75300
O124        O  0.03211555  0.64058408  0.75887354    -0.75200
O125        O  0.98243450  0.63699710  0.71642058    -0.75000
C126        C  0.00822199  0.72546578  0.62746225     0.76800
C127        C  0.01394728  0.83065017  0.71421979     0.77300
C128        C  0.90116952  0.72609573  0.72817639     0.76200
C129        C  0.00824878  0.72673057  0.83838585     0.76600
C130        C  0.11154578  0.74663453  0.75140539     0.77700
C131        C  0.00407654  0.62186784  0.74260051     0.76800
C132        C  0.27315287  0.75504823  0.76623972    -0.02900
Zn133      Zn  0.54271313  0.70974658  0.26848925     1.49700
Zn134      Zn  0.53755088  0.77878261  0.21345983     1.49400
Zn135      Zn  0.48407771  0.70968520  0.20027706     1.49100
Zn136      Zn  0.46948389  0.77199791  0.27143748     1.49500
O137        O  0.50720015  0.74147405  0.24036723    -1.84500
O138        O  0.59791197  0.72998740  0.26404787    -0.75100
O139        O  0.50931734  0.79206441  0.16263867    -0.74900
O140        O  0.48947322  0.65224866  0.21054601    -0.74500
O141        O  0.59503688  0.76902642  0.21295104    -0.75100
O142        O  0.52861682  0.65279859  0.26269672    -0.74700
O143        O  0.49439161  0.73093917  0.14718999    -0.75300
O144        O  0.41344566  0.75624229  0.25163207    -0.74700
O145        O  0.53867362  0.82557845  0.24553842    -0.75500
O146        O  0.42757154  0.71637676  0.20155965    -0.74900
O147        O  0.47547587  0.83029817  0.25493333    -0.75300
O148        O  0.48452750  0.76148424  0.33119166    -0.75200
O149        O  0.53381055  0.71902406  0.32324942    -0.75000
C150        C  0.61371970  0.75485390  0.24186002     0.76800
C151        C  0.49316847  0.76728870  0.13958915     0.77300
C152        C  0.50424547  0.63525819  0.24010240     0.76200
C153        C  0.40296395  0.73529858  0.22181452     0.76600
C154        C  0.50793649  0.84589449  0.24546027     0.77700
C155        C  0.51172375  0.73921877  0.34510210     0.76800
C156        C  0.38822082  0.86234315  0.86037808    -0.02900
C157        C  0.48586387  0.95498898  0.74259669    -0.02900
C158        C  0.48734103  0.77228731  0.98167377    -0.02900
C159        C  0.73729403  0.51142609  0.50814204    -0.02900
Zn160      Zn  0.71356595  0.51801061  0.26947590     1.49700
Zn161      Zn  0.78797147  0.46501162  0.27065300     1.49400
Zn162      Zn  0.72500915  0.45972433  0.19940857     1.49100
Zn163      Zn  0.77550313  0.53426174  0.20775399     1.49500
O164        O  0.75159118  0.49280631  0.23667463    -1.84500
O165        O  0.71189355  0.49483406  0.32072070    -0.75100
O166        O  0.77599964  0.40448184  0.26091201    -0.74900
O167        O  0.66645914  0.46400695  0.20493172    -0.74500
O168        O  0.77563421  0.48535952  0.32861397    -0.75100
O169        O  0.65943292  0.51027404  0.25113719    -0.74700
O170        O  0.73441160  0.40480506  0.21062198    -0.75300
O171        O  0.77211389  0.52674161  0.14857059    -0.74700
O172        O  0.84534530  0.48117250  0.25386506    -0.75500
O173        O  0.74890513  0.46662465  0.14646664    -0.74900
O174        O  0.83163968  0.52975614  0.21359083    -0.75300
O175        O  0.76829418  0.58688406  0.23415764    -0.75200
O176        O  0.72922956  0.57263559  0.28328497    -0.75000
C177        C  0.74173876  0.49395705  0.34271290     0.76800
C178        C  0.75442354  0.38616904  0.23543782     0.77300
C179        C  0.64534236  0.48435038  0.22820697     0.76200
C180        C  0.76765914  0.49410865  0.13055969     0.76600
C181        C  0.85616126  0.50865539  0.23121581     0.77700
C182        C  0.75268793  0.59575448  0.26701525     0.76800
C183        C  0.74767784  0.21176450  0.22255768    -0.02900
Zn184      Zn  0.79683747  0.93491330  0.71876343     1.49700
Zn185      Zn  0.79950557  0.00318631  0.77692509     1.49400
Zn186      Zn  0.73632012  0.00661244  0.70708401     1.49100
Zn187      Zn  0.72872394  0.94751648  0.77573057     1.49500
O188        O  0.76523587  0.97468644  0.74365461    -1.84500
O189        O  0.85561682  0.94188002  0.72594444    -0.75100
O190        O  0.79096132  0.05859083  0.77182306    -0.74900
O191        O  0.75687729  0.99193924  0.65061195    -0.74500
O192        O  0.85392363  0.99857023  0.75769089    -0.75100
O193        O  0.79627000  0.94186297  0.66312418    -0.74700
O194        O  0.75126565  0.06515118  0.72030870    -0.75300
O195        O  0.67855511  0.97443325  0.77799135    -0.74700
O196        O  0.78851498  0.99491232  0.83276201    -0.75500
O197        O  0.67661220  0.99122938  0.71595733    -0.74900
O198        O  0.74256280  0.94937512  0.83236169    -0.75300
O199        O  0.71430804  0.89612564  0.74953564    -0.75200
O200        O  0.76999576  0.88360404  0.71871102    -0.75000
C201        C  0.87186425  0.97397000  0.73608379     0.76800
C202        C  0.77369786  0.07976932  0.74720643     0.77300
C203        C  0.78088447  0.96504601  0.63934828     0.76200
C204        C  0.65915343  0.97959630  0.74706928     0.76600
C205        C  0.76281591  0.97516819  0.85036039     0.77700
C206        C  0.73443438  0.87505904  0.72616182     0.76800
C207        C  0.79580240  0.24611363  0.75389448    -0.02900
Zn208      Zn  0.79196173  0.26814576  0.46713667     1.49700
Zn209      Zn  0.79146946  0.20286638  0.52915242     1.49400
Zn210      Zn  0.72770158  0.26723233  0.53539630     1.49100
Zn211      Zn  0.71988678  0.20796782  0.46845805     1.49500
O212        O  0.75799089  0.23647873  0.49859226    -1.84500
O213        O  0.85081167  0.25731520  0.48279650    -0.75100
O214        O  0.80197908  0.22736402  0.58261520    -0.74900
O215        O  0.72557388  0.31943628  0.51849426    -0.74500
O216        O  0.84602534  0.20029020  0.51115673    -0.75100
O217        O  0.77458131  0.32552155  0.47715089    -0.74700
O218        O  0.75856775  0.27555981  0.58475819    -0.75300
O219        O  0.66402461  0.22778159  0.47838145    -0.74700
O220        O  0.77562415  0.14702585  0.52201212    -0.75500
O221        O  0.66893857  0.25851219  0.53598094    -0.74900
O222        O  0.73249436  0.15026199  0.47245861    -0.75300
O223        O  0.72783535  0.21641969  0.41302285    -0.75200
O224        O  0.78216180  0.25184987  0.40905703    -0.75000
C225        C  0.86704949  0.22719473  0.49797230     0.76800
C226        C  0.78897723  0.25875740  0.59842807     0.77300
C227        C  0.74653373  0.34037355  0.49760781     0.76200
C228        C  0.64861827  0.24761698  0.50627178     0.76600
C229        C  0.75594717  0.13102506  0.49419186     0.77700
C230        C  0.75450032  0.23182331  0.39308213     0.76800
C231        C  0.88751933  0.86198077  0.36220138    -0.02900
C232        C  0.79227167  0.96331742  0.47774832    -0.02900
C233        C  0.99465468  0.75718662  0.46403281    -0.02900
C234        C  0.77367713  0.75326905  0.27311108    -0.02900
C235        C  0.27526890  0.46264280  0.46238125    -0.02900
Zn236      Zn  0.55211341  0.46249798  0.95282060     1.49700
Zn237      Zn  0.48090131  0.45943505  0.00923828     1.49400
Zn238      Zn  0.54846180  0.52638432  0.02316103     1.49100
Zn239      Zn  0.48755343  0.52584225  0.95034280     1.49500
O240        O  0.51827357  0.49441593  0.98525933    -1.84500
O241        O  0.55079969  0.40680609  0.96829923    -0.75100
O242        O  0.48229689  0.46863946  0.06528124    -0.74900
O243        O  0.60885685  0.51036335  0.01668987    -0.74500
O244        O  0.49826448  0.40306295  0.00574204    -0.75100
O245        O  0.60654823  0.47212555  0.96383626    -0.74700
O246        O  0.52669502  0.51400714  0.07987980    -0.75300
O247        O  0.49598617  0.57991508  0.95897995    -0.74700
O248        O  0.42390952  0.47348590  0.00041740    -0.75500
O249        O  0.53728797  0.58539931  0.00885044    -0.74900
O250        O  0.43143366  0.52431313  0.96248740    -0.75300
O251        O  0.50159628  0.52034293  0.89484772    -0.75200
O252        O  0.54751641  0.47414960  0.89598175    -0.75000
C253        C  0.52965704  0.38810928  0.99191356     0.76800
C254        C  0.49994209  0.48994266  0.09008669     0.77300
C255        C  0.62609003  0.48882802  0.99061445     0.76200
C256        C  0.51524320  0.60090320  0.98241813     0.76600
C257        C  0.41032797  0.50412333  0.98470477     0.77700
C258        C  0.52749147  0.49965435  0.87799105     0.76800
C259        C  0.47635310  0.47158910  0.25288210    -0.02900
C260        C  0.38850345  0.35945141  0.36445552    -0.02900
C261        C  0.47574804  0.25629274  0.48375349    -0.02900
Zn262      Zn  0.49290707  0.02662981  0.52298317     1.49700
Zn263      Zn  0.55622765  0.02666192  0.45687148     1.49400
Zn264      Zn  0.56155170  0.96786839  0.52001012     1.49100
Zn265      Zn  0.49341637  0.95659696  0.46049835     1.49500
O266        O  0.52454505  0.99515923  0.48823626    -1.84500
O267        O  0.49730739  0.08404725  0.51056751    -0.75100
O268        O  0.61293275  0.01438825  0.46549437    -0.74900
O269        O  0.53361788  0.95535805  0.56826553    -0.74500
O270        O  0.53750605  0.08144575  0.45939573    -0.75100
O271        O  0.48971868  0.00231729  0.57706183    -0.74700
O272        O  0.61475296  0.99151086  0.52531837    -0.75300
O273        O  0.51214000  0.90338495  0.48222611    -0.74700
O274        O  0.54726662  0.01322444  0.40233586    -0.75500
O275        O  0.57374172  0.91577170  0.49871663    -0.74900
O276        O  0.50469139  0.96445373  0.40102677    -0.75300
O277        O  0.43380268  0.96589404  0.47444682    -0.75200
O278        O  0.43825248  0.02025507  0.51042346    -0.75000
C279        C  0.51268489  0.09959572  0.48058103     0.76800
C280        C  0.63209070  0.99953863  0.49359528     0.77300
C281        C  0.50506258  0.96988550  0.58713129     0.76200
C282        C  0.54542903  0.89232923  0.49602002     0.76600
C283        C  0.52622200  0.98919428  0.38334483     0.77700
C284        C  0.41796118  0.99401500  0.49409721     0.76800
C285        C  0.52190958  0.00892982  0.21066178    -0.02900
C286        C  0.01922940  0.53023702  0.21741718    -0.02900
Zn287      Zn  0.02994478  0.50960189  0.51232764     1.49700
Zn288      Zn  0.96746663  0.50598058  0.44316212     1.49400
Zn289      Zn  0.03255492  0.44326674  0.44227048     1.49100
Zn290      Zn  0.96753909  0.43902985  0.50298225     1.49500
O291        O  0.00097696  0.47506227  0.47642908    -1.84500
O292        O  0.01468366  0.56699060  0.49798854    -0.75100
O293        O  0.97028980  0.49190030  0.38661289    -0.74900
O294        O  0.08637933  0.45564711  0.45246298    -0.74500
O295        O  0.97978664  0.56175114  0.44332526    -0.75100
O296        O  0.09024624  0.49864380  0.50197648    -0.74700
O297        O  0.02786143  0.46203171  0.38738610    -0.75300
O298        O  0.98790697  0.38386640  0.50085505    -0.74700
O299        O  0.91557716  0.50804566  0.46688950    -0.75500
O300        O  0.03380599  0.38585955  0.45563746    -0.74900
O301        O  0.91041506  0.45039109  0.49428777    -0.75300
O302        O  0.97066605  0.44886556  0.55905401    -0.75200
O303        O  0.01215728  0.49763585  0.57009778    -0.75000
C304        C  0.99582874  0.58273181  0.46946290     0.76800
C305        C  0.00259218  0.48312054  0.37013958     0.77300
C306        C  0.10631054  0.47641082  0.47583026     0.76200
C307        C  0.01687266  0.36810092  0.48319001     0.76600
C308        C  0.89687902  0.48436527  0.48761994     0.77700
C309        C  0.98797986  0.47202206  0.58236013     0.76800
C310        C  0.04110728  0.20831014  0.51009166    -0.02900
C311        C  0.29825603  0.98282025  0.96509304    -0.02900
Zn312      Zn  0.98691156  0.96843636  0.96198556     1.49700
Zn313      Zn  0.05111395  0.96795157  0.03288043     1.49400
Zn314      Zn  0.05786478  0.02771097  0.96347879     1.49100
Zn315      Zn  0.99090692  0.03538106  0.02328267     1.49500
O316        O  0.02228803  0.99842585  0.99442082    -1.84500
O317        O  0.00403897  0.91093332  0.97021987    -0.75100
O318        O  0.11000593  0.97411053  0.02806873    -0.74900
O319        O  0.05532480  0.01388342  0.90760993    -0.74500
O320        O  0.04792611  0.91376199  0.01830324    -0.75100
O321        O  0.99804987  0.98377976  0.90353441    -0.74700
O322        O  0.11333884  0.01462935  0.97769722    -0.75300
O323        O  0.01062991  0.08941243  0.02012319    -0.74700
O324        O  0.02381524  0.96796173  0.08598329    -0.75500
O325        O  0.03822297  0.08303637  0.96217078    -0.74900
O326        O  0.98026688  0.01515735  0.07643414    -0.75300
O327        O  0.93723041  0.04107517  0.00256433    -0.75200
O328        O  0.92866577  0.98023582  0.98225845    -0.75000
C329        C  0.02875444  0.89430505  0.99328380     0.76800
C330        C  0.12940164  0.99120572  0.00161571     0.77300
C331        C  0.02770583  0.99984599  0.88711632     0.76200
C332        C  0.01772304  0.10275974  0.98645211     0.76600
C333        C  0.99360500  0.98731983  0.09682695     0.77700
C334        C  0.91472152  0.01262555  0.99598581     0.76800
C335        C  0.97738200  0.97550481  0.25533609    -0.02900
C336        C  0.00455127  0.25841423  0.96203341    -0.02900
Zn337      Zn  0.31379711  0.22953362  0.95742466     1.49700
Zn338      Zn  0.29602119  0.28214416  0.03191641     1.49400
Zn339      Zn  0.24060213  0.28407501  0.96426192     1.49100
Zn340      Zn  0.24747121  0.20587839  0.01673977     1.49500
O341        O  0.27399044  0.24957050  0.99131373    -1.84500
O342        O  0.36542967  0.23986404  0.98299068    -0.75100
O343        O  0.28855550  0.34015665  0.02863180    -0.74900
O344        O  0.24163291  0.26610758  0.90853561    -0.74500
O345        O  0.35278801  0.26549364  0.04222695    -0.75100
O346        O  0.30289628  0.24529955  0.90166830    -0.74700
O347        O  0.24844730  0.34165860  0.97728438    -0.75300
O348        O  0.18645656  0.21724670  0.01105752    -0.74700
O349        O  0.26213304  0.27027169  0.07423137    -0.75500
O350        O  0.18730460  0.27342774  0.97908086    -0.74900
O351        O  0.27216712  0.20777326  0.07429554    -0.75300
O352        O  0.26273495  0.15368044  0.98652333    -0.75200
O353        O  0.31343518  0.17175393  0.95089567    -0.75000
C354        C  0.37644078  0.25017410  0.01748172     0.76800
C355        C  0.26660668  0.35894231  0.00537402     0.77300
C356        C  0.26816404  0.24973666  0.88802014     0.76200
C357        C  0.16871787  0.24620040  0.99498820     0.76600
C358        C  0.27666126  0.24126140  0.09086107     0.77700
C359        C  0.29046226  0.14552698  0.96233925     0.76800
Zn360      Zn  0.27659078  0.03998207  0.19727477     1.49700
Zn361      Zn  0.21882396  0.96983319  0.19181396     1.49400
Zn362      Zn  0.28579657  0.97199173  0.25846410     1.49100
Zn363      Zn  0.21267062  0.03043681  0.26154520     1.49500
O364        O  0.24904766  0.00245514  0.22787400    -1.84500
O365        O  0.27367291  0.02779848  0.13956556    -0.75100
O366        O  0.22210123  0.91516454  0.20793592    -0.74900
O367        O  0.34363955  0.98424308  0.24112643    -0.74500
O368        O  0.24418110  0.97038819  0.13855678    -0.75100
O369        O  0.33319301  0.03583188  0.20405005    -0.74700
O370        O  0.26910606  0.91312068  0.25286141    -0.75300
O371        O  0.22096170  0.02078611  0.31684479    -0.74700
O372        O  0.15998944  0.97753074  0.19615838    -0.75500
O373        O  0.27862412  0.99094431  0.31559440    -0.74900
O374        O  0.15893723  0.01116148  0.25208603    -0.75300
O375        O  0.22105127  0.08803539  0.26269915    -0.75200
O376        O  0.26677299  0.09427776  0.21717685    -0.75000
C377        C  0.26657957  0.99504911  0.12271328     0.76800
C378        C  0.24226862  0.89606435  0.23230838     0.77300
C379        C  0.35637363  0.01235982  0.22041674     0.76200
C380        C  0.25104334  0.00850916  0.33440960     0.76600
C381        C  0.14197435  0.98936042  0.22676708     0.77700
C382        C  0.24593375  0.10839983  0.24483279     0.76800
Zn383      Zn  0.97821232  0.28504066  0.20994072     1.49700
Zn384      Zn  0.03792224  0.28707846  0.28044891     1.49400
Zn385      Zn  0.97512071  0.22267345  0.27582150     1.49100
Zn386      Zn  0.04605282  0.22011910  0.21333618     1.49500
O387        O  0.01025257  0.25324040  0.24389664    -1.84500
O388        O  0.98692868  0.34218746  0.21987398    -0.75100
O389        O  0.03884710  0.26378189  0.33447660    -0.74900
O390        O  0.92024624  0.22111631  0.25396646    -0.74500
O391        O  0.02652117  0.34425047  0.27213619    -0.75100
O392        O  0.92331156  0.26431957  0.20669546    -0.74700
O393        O  0.98372554  0.23025476  0.33380288    -0.75300
O394        O  0.03587949  0.16144511  0.22888123    -0.74700
O395        O  0.09298792  0.28691405  0.26829521    -0.75500
O396        O  0.98763544  0.16735306  0.27145954    -0.74900
O397        O  0.10318814  0.23937763  0.22440055    -0.75300
O398        O  0.03482524  0.22985407  0.15421517    -0.75200
O399        O  0.99322864  0.27944410  0.15504036    -0.75000
C400        C  0.00862077  0.36093218  0.24405136     0.76800
C401        C  0.01568955  0.24008054  0.35071979     0.77300
C402        C  0.90540192  0.23716478  0.22392604     0.76200
C403        C  0.01109566  0.14602375  0.25224499     0.76600
C404        C  0.11565269  0.26728608  0.24658857     0.77700
C405        C  0.01421173  0.25534859  0.13612918     0.76800
C406        C  0.27955451  0.27531023  0.24579312    -0.02900
C407        C  0.63785882  0.10980175  0.11871210    -0.02900
C408        C  0.63033461  0.61109492  0.61130351    -0.02900
C409        C  0.23773611  0.29512080  0.24862073    -0.06500
C410        C  0.21805362  0.28754623  0.28419081    -0.17600
C411        C  0.17889020  0.27578751  0.28356587     0.10700
C412        C  0.15716692  0.27836381  0.24845806    -0.06400
C413        C  0.17301655  0.29975457  0.21794816    -0.17700
C414        C  0.21311495  0.30969565  0.21804734     0.10700
S415        S  0.15953195  0.25486447  0.32748546    -0.32600
S416        S  0.22968497  0.34125979  0.18003579    -0.32600
H417        H  0.19308617  0.34834037  0.16220667     0.28700
H418        H  0.13476464  0.22782772  0.30842125     0.28700
H419        H  0.23507105  0.28174093  0.31039088     0.19300
H420        H  0.15424683  0.30751411  0.19356431     0.19300
C421        C  0.24849170  0.15027014  0.25316328    -0.06500
C422        C  0.23175393  0.17292412  0.22494540    -0.17600
C423        C  0.23971202  0.21214400  0.22253106     0.10700
C424        C  0.26500757  0.23157753  0.25152880    -0.06400
C425        C  0.27598979  0.20881175  0.28408078    -0.17700
C426        C  0.26980230  0.16812229  0.28423491     0.10700
S427        S  0.21690897  0.23015196  0.17819768    -0.32600
S428        S  0.29088343  0.14112023  0.32417904    -0.32600
H429        H  0.28317991  0.10335615  0.30983620     0.28700
H430        H  0.24017149  0.26155865  0.17094588     0.28700
H431        H  0.21421556  0.15869792  0.20218592     0.19300
H432        H  0.29005884  0.22192487  0.30932843     0.19300
C433        C  0.29939073  0.24964006  0.12760311    -0.06500
C434        C  0.30478083  0.28930781  0.13880162    -0.17600
C435        C  0.30879702  0.30020437  0.17846672     0.10700
C436        C  0.30424215  0.27125663  0.20668834    -0.06400
C437        C  0.31785637  0.23371435  0.19368234    -0.17700
C438        C  0.31191660  0.22158233  0.15460588     0.10700
S439        S  0.32559473  0.34857837  0.19013126    -0.32600
S440        S  0.31520336  0.17024993  0.14322132    -0.32600
H441        H  0.32849026  0.17509147  0.10482182     0.28700
H442        H  0.35097390  0.33611434  0.22007668     0.28700
H443        H  0.30319614  0.31205192  0.11722752     0.19300
H444        H  0.32516502  0.21150375  0.21470176     0.19300
C445        C  0.00609629  0.26299696  0.00859451    -0.06500
C446        C  0.02773639  0.23296537  0.02784623    -0.17600
C447        C  0.03010104  0.22913263  0.06806097     0.10700
C448        C  0.01317968  0.25776386  0.09238970    -0.06400
C449        C  0.99419194  0.28986400  0.07429819    -0.17700
C450        C  0.99071649  0.29313729  0.03301952     0.10700
S451        S  0.05334102  0.18530874  0.08548199    -0.32600
S452        S  0.97007077  0.33727464  0.01334668    -0.32600
H453        H  0.95964494  0.35522187  0.04913049     0.28700
H454        H  0.02039415  0.17409672  0.10711128     0.28700
H455        H  0.04112976  0.20977099  0.01071552     0.19300
H456        H  0.98216589  0.31288103  0.09269782     0.19300
C457        C  0.05031077  0.26013385  0.95326785    -0.06500
C458        C  0.07050970  0.29099597  0.97286201    -0.17600
C459        C  0.10625799  0.28470624  0.99238830     0.10700
C460        C  0.12566726  0.24823369  0.98911170    -0.06400
C461        C  0.10885751  0.21960670  0.96475871    -0.17700
C462        C  0.07426169  0.22705017  0.94344520     0.10700
S463        S  0.12499426  0.32402004  0.02278523    -0.32600
S464        S  0.07713652  0.20762406  0.89424032    -0.32600
H465        H  0.05914779  0.23984269  0.87677693     0.28700
H466        H  0.14710985  0.30011867  0.04781380     0.28700
H467        H  0.05499027  0.31805160  0.97896898     0.19300
H468        H  0.12661549  0.19449113  0.95648310     0.19300
C469        C  0.00654923  0.10269542  0.25692012    -0.06500
C470        C  0.98158770  0.08828434  0.28663704    -0.17600
C471        C  0.97130059  0.04834837  0.28949317     0.10700
C472        C  0.98552646  0.02107311  0.26105581    -0.06400
C473        C  0.01138358  0.03675291  0.23225846    -0.17700
C474        C  0.02242284  0.07566212  0.23022393     0.10700
S475        S  0.93685910  0.03670119  0.32720975    -0.32600
S476        S  0.05554246  0.08970155  0.19173022    -0.32600
H477        H  0.05916469  0.05326324  0.17254697     0.28700
H478        H  0.95542359  0.00268266  0.33970350     0.28700
H479        H  0.96892973  0.10862968  0.30766390     0.19300
H480        H  0.02247394  0.01768492  0.20941054     0.19300
C481        C  0.10167520  0.97571330  0.23603410    -0.06500
C482        C  0.08715300  0.98439713  0.27360827    -0.17600
C483        C  0.04884791  0.97519438  0.28427080     0.10700
C484        C  0.02200430  0.96063934  0.25509159    -0.06400
C485        C  0.04017320  0.94277416  0.22205035    -0.17700
C486        C  0.07895909  0.95082265  0.21174906     0.10700
S487        S  0.03391681  0.98799314  0.33358282    -0.32600
S488        S  0.09714623  0.92788863  0.16759627    -0.32600
H489        H  0.12963397  0.91105995  0.18669925     0.28700
H490        H  0.07164499  0.99299645  0.34976441     0.28700
H491        H  0.10551232  0.99951588  0.29482236     0.19300
H492        H  0.02566928  0.92171172  0.20386839     0.19300
C493        C  0.98505406  0.21725449  0.95540369    -0.06500
C494        C  0.96355899  0.19996210  0.98583941    -0.17600
C495        C  0.97350067  0.16235582  0.99743463     0.10700
C496        C  0.99995496  0.14023661  0.97390418    -0.06400
C497        C  0.00567732  0.15309731  0.93518946    -0.17700
C498        C  0.99508368  0.19141084  0.92513670     0.10700
S499        S  0.95453256  0.14721831  0.04385760    -0.32600
S500        S  0.98461383  0.20456809  0.87525900    -0.32600
H501        H  0.99462838  0.16800466  0.85877870     0.28700
H502        H  0.94095174  0.11137126  0.02901014     0.28700
H503        H  0.94668451  0.21795709  0.00600734     0.19300
H504        H  0.01797787  0.13366783  0.91314400     0.19300
C505        C  0.97333535  0.97864146  0.13402649    -0.06500
C506        C  0.95415995  0.00936269  0.15325809    -0.17600
C507        C  0.94292864  0.00605127  0.19219854     0.10700
C508        C  0.95665060  0.97267745  0.21358152    -0.06400
C509        C  0.95983037  0.93846080  0.19061125    -0.17700
C510        C  0.97098397  0.94127154  0.15095128     0.10700
S511        S  0.91619900  0.04719113  0.21323364    -0.32600
S512        S  0.98361151  0.89709692  0.12460309    -0.32600
H513        H  0.97264425  0.91102561  0.08758369     0.28700
H514        H  0.90480627  0.06442299  0.17781351     0.28700
H515        H  0.95038693  0.03700798  0.13885413     0.19300
H516        H  0.96161315  0.91048661  0.20477899     0.19300
C517        C  0.30435633  0.02288686  0.94340143    -0.06500
C518        C  0.27167151  0.04203090  0.92574544    -0.17600
C519        C  0.26728069  0.08281622  0.92869031     0.10700
C520        C  0.29705359  0.10488813  0.94724314    -0.06400
C521        C  0.33412878  0.08697946  0.95120460    -0.17700
C522        C  0.33836990  0.04609873  0.94620547     0.10700
S523        S  0.22203382  0.10441419  0.91192546    -0.32600
S524        S  0.38563846  0.02586590  0.93363647    -0.32600
H525        H  0.40707177  0.06031771  0.94022145     0.28700
H526        H  0.23799989  0.14131249  0.90466650     0.28700
H527        H  0.24671668  0.02533957  0.91541125     0.19300
H528        H  0.35939982  0.10466918  0.95859790     0.19300
C529        C  0.17174956  0.98409925  0.99742495    -0.06500
C530        C  0.19576023  0.01465301  0.00800035    -0.17600
C531        C  0.23538185  0.01460222  0.99891651     0.10700
C532        C  0.25287178  0.98275970  0.97623792    -0.06400
C533        C  0.22861836  0.95000850  0.96962812    -0.17700
C534        C  0.18823558  0.95087603  0.97847644     0.10700
S535        S  0.26003232  0.05817460  0.01641765    -0.32600
S536        S  0.15958691  0.90898351  0.96376578    -0.32600
H537        H  0.12264206  0.92720550  0.96299471     0.28700
H538        H  0.23775511  0.06397369  0.05060119     0.28700
H539        H  0.18274392  0.03993969  0.02245617     0.19300
H540        H  0.24091478  0.92334415  0.95765550     0.19300
C541        C  0.31553874  0.97786349  0.00801223    -0.06500
C542        C  0.30125737  0.94479246  0.02761931    -0.17600
C543        C  0.28425983  0.94898067  0.06480479     0.10700
C544        C  0.28700331  0.98531980  0.08516568    -0.06400
C545        C  0.31433780  0.01202164  0.07103729    -0.17700
C546        C  0.33011197  0.00782660  0.03343036     0.10700
S547        S  0.25798260  0.90767325  0.08275790    -0.32600
S548        S  0.37550033  0.03289074  0.02693035    -0.32600
H549        H  0.39525748  0.99930624  0.01335086     0.28700
H550        H  0.27800082  0.90798542  0.11893850     0.28700
H551        H  0.29504673  0.91839783  0.01088902     0.19300
H552        H  0.32363097  0.03653188  0.08919957     0.19300
C553        C  0.04831341  0.19696604  0.46484732    -0.06500
C554        C  0.01751425  0.17853995  0.44310216    -0.17600
C555        C  0.00564697  0.19196108  0.40631102     0.10700
C556        C  0.02769096  0.22171463  0.38853362    -0.06400
C557        C  0.06539297  0.22908179  0.40442155    -0.17700
C558        C  0.07698056  0.21348630  0.44063332     0.10700
S559        S  0.96193156  0.17105850  0.38415258    -0.32600
S560        S  0.12867992  0.20465128  0.44848887    -0.32600
H561        H  0.12440155  0.18547115  0.48411941     0.28700
H562        H  0.95084101  0.14736271  0.41532593     0.28700
H563        H  0.99811240  0.15890440  0.45787980     0.19300
H564        H  0.08671529  0.24494539  0.38769947     0.19300
C565        C  0.03241383  0.32984483  0.49765210    -0.06500
C566        C  0.01548772  0.31406135  0.53124210    -0.17600
C567        C  0.02619194  0.27705510  0.54474580     0.10700
C568        C  0.05176190  0.25271440  0.52129775    -0.06400
C569        C  0.07728941  0.27426055  0.49794347    -0.17700
C570        C  0.06679302  0.31115058  0.48344961     0.10700
S571        S  0.00094484  0.26216373  0.58847195    -0.32600
S572        S  0.09838703  0.33344064  0.44800773    -0.32600
H573        H  0.12410910  0.30164702  0.44254343     0.28700
H574        H  0.01234086  0.22318270  0.58900455     0.28700
H575        H  0.99275229  0.33005149  0.54674815     0.19300
H576        H  0.10511721  0.26209877  0.49037924     0.19300
C577        C  0.02735979  0.54080125  0.26221267    -0.06500
C578        C  0.05762341  0.51879907  0.28051209    -0.17600
C579        C  0.04923445  0.49682457  0.31362168     0.10700
C580        C  0.01287479  0.50260551  0.33304701    -0.06400
C581        C  0.98975962  0.53468862  0.32160494    -0.17700
C582        C  0.99930420  0.55625863  0.28869681     0.10700
S583        S  0.08414106  0.45928411  0.32591061    -0.32600
S584        S  0.99196031  0.60822059  0.29488276    -0.32600
H585        H  0.01188244  0.61912145  0.26101353     0.28700
H586        H  0.05558055  0.42980479  0.32622897     0.28700
H587        H  0.08323929  0.51060086  0.26359894     0.19300
H588        H  0.96671419  0.54570249  0.34053968     0.19300
C589        C  0.02027574  0.48391771  0.22056473    -0.06500
C590        C  0.99062311  0.46842551  0.24541838    -0.17600
C591        C  0.98753403  0.42953281  0.25464969     0.10700
C592        C  0.01385075  0.40297676  0.23835710    -0.06400
C593        C  0.04405459  0.41657868  0.21409903    -0.17700
C594        C  0.04818527  0.45677484  0.20572729     0.10700
S595        S  0.94879384  0.41567860  0.28726291    -0.32600
S596        S  0.09008412  0.47216811  0.17875084    -0.32600
H597        H  0.10285952  0.43485409  0.16661806     0.28700
H598        H  0.97051270  0.38670776  0.30649983     0.28700
H599        H  0.96917226  0.48765744  0.25875660     0.19300
H600        H  0.06470138  0.39555174  0.20211494     0.19300
C601        C  0.55266031  0.03340754  0.18579964    -0.06500
C602        C  0.55442606  0.07439312  0.19180810    -0.17600
C603        C  0.58044441  0.09924430  0.17132865     0.10700
C604        C  0.60796649  0.08373199  0.14351254    -0.06400
C605        C  0.60416581  0.04313556  0.13577205    -0.17700
C606        C  0.57634363  0.01890244  0.15401847     0.10700
S607        S  0.57716925  0.15107043  0.18143131    -0.32600
S608        S  0.56862044  0.97197507  0.13001042    -0.32600
H609        H  0.60619963  0.96767051  0.11368907     0.28700
H610        H  0.54838313  0.15000310  0.21064287     0.28700
H611        H  0.53503945  0.08719772  0.21343922     0.19300
H612        H  0.62066752  0.03010831  0.11216713     0.19300
C613        C  0.47985135  0.02810589  0.20367455    -0.06500
C614        C  0.46061648  0.04811608  0.23492173    -0.17600
C615        C  0.42094522  0.04098018  0.24241398     0.10700
C616        C  0.39867395  0.01959929  0.21466090    -0.06400
C617        C  0.41506418  0.01371630  0.17722096    -0.17700
C618        C  0.45536358  0.02026081  0.17084603     0.10700
S619        S  0.40089763  0.05932828  0.28789246    -0.32600
S620        S  0.47416726  0.01239797  0.12230803    -0.32600
H621        H  0.50129166  0.04297303  0.12551146     0.28700
H622        H  0.37632440  0.02742169  0.29444764     0.28700
H623        H  0.47754984  0.06302362  0.25750526     0.19300
H624        H  0.39676690  0.00326826  0.15322326     0.19300
C625        C  0.52661596  0.99271511  0.33991915    -0.06500
C626        C  0.55739654  0.01344504  0.32212979    -0.17600
C627        C  0.55795554  0.02153361  0.28161394     0.10700
C628        C  0.52684658  0.00751470  0.25711439    -0.06400
C629        C  0.49676036  0.98611670  0.27635194    -0.17700
C630        C  0.49565497  0.97971051  0.31621576     0.10700
S631        S  0.59924542  0.04868204  0.26380031    -0.32600
S632        S  0.45208691  0.95705727  0.33468305    -0.32600
H633        H  0.44476721  0.98718182  0.36224292     0.28700
H634        H  0.62228558  0.04858750  0.29809966     0.28700
H635        H  0.58121549  0.02399092  0.34044557     0.19300
H636        H  0.47206912  0.97491388  0.25971875     0.19300
C637        C  0.49892048  0.13837033  0.46795499    -0.06500
C638        C  0.45877593  0.14784548  0.47115602    -0.17600
C639        C  0.44587155  0.18633736  0.46550266     0.10700
C640        C  0.47417038  0.21584406  0.46074909    -0.06400
C641        C  0.50884203  0.20267884  0.44181410    -0.17700
C642        C  0.52338261  0.16528039  0.44917703     0.10700
S643        S  0.39442672  0.19417268  0.45667057    -0.32600
S644        S  0.57458184  0.15635327  0.43953842    -0.32600
H645        H  0.58227646  0.14041717  0.47652456     0.28700
H646        H  0.40076285  0.22249200  0.42828965     0.28700
H647        H  0.43773953  0.12562355  0.47844489     0.19300
H648        H  0.52891181  0.22363670  0.42982075     0.19300
C649        C  0.41471611  0.33336375  0.39364017    -0.06500
C650        C  0.39446060  0.31458316  0.42391923    -0.17600
C651        C  0.41304425  0.29558044  0.45560461     0.10700
C652        C  0.45446945  0.28647398  0.45495212    -0.06400
C653        C  0.47394430  0.30095126  0.42187384    -0.17700
C654        C  0.45660568  0.32819423  0.39568624     0.10700
S655        S  0.38043748  0.28409145  0.49530467    -0.32600
S656        S  0.49068630  0.35702133  0.36903532    -0.32600
H657        H  0.52447031  0.34837384  0.39124257     0.28700
H658        H  0.35197981  0.31303441  0.48809049     0.28700
H659        H  0.36278813  0.31615015  0.42384267     0.19300
H660        H  0.50368345  0.29172142  0.41633794     0.19300
C661        C  0.36237433  0.33379978  0.33418437    -0.06500
C662        C  0.33581295  0.35491248  0.31067447    -0.17600
C663        C  0.30673888  0.33750425  0.28662712     0.10700
C664        C  0.30746146  0.29620780  0.27780364    -0.06400
C665        C  0.33872412  0.27582555  0.29591130    -0.17700
C666        C  0.36318848  0.29244976  0.32595816     0.10700
S667        S  0.27088370  0.37152426  0.26746807    -0.32600
S668        S  0.39746689  0.25934095  0.34867033    -0.32600
H669        H  0.37594982  0.22509731  0.34111155     0.28700
H670        H  0.27523747  0.40110905  0.29621277     0.28700
H671        H  0.33588518  0.38636975  0.31372556     0.19300
H672        H  0.34452259  0.24617111  0.28640809     0.19300
C673        C  0.45274904  0.44424652  0.28333191    -0.06500
C674        C  0.45173953  0.40343157  0.27713612    -0.17600
C675        C  0.43397453  0.37610472  0.30231429     0.10700
C676        C  0.41266016  0.38847712  0.33649506    -0.06400
C677        C  0.40913980  0.42955516  0.34017902    -0.17700
C678        C  0.42848510  0.45683492  0.31600086     0.10700
S679        S  0.44090097  0.32511444  0.28965878    -0.32600
S680        S  0.41673228  0.50703735  0.32854913    -0.32600
H681        H  0.41362577  0.50194014  0.36923412     0.28700
H682        H  0.45580587  0.32931544  0.25170265     0.28700
H683        H  0.46526395  0.39182236  0.25170074     0.19300
H684        H  0.38937043  0.44173606  0.36147701     0.19300
C685        C  0.48917943  0.48296461  0.13132290    -0.06500
C686        C  0.50359769  0.44872650  0.14750817    -0.17600
C687        C  0.49084163  0.43550693  0.18396878     0.10700
C688        C  0.46506092  0.45994873  0.20791292    -0.06400
C689        C  0.44209072  0.48538532  0.18486776    -0.17700
C690        C  0.45588556  0.50001532  0.14909708     0.10700
S691        S  0.51572708  0.39191051  0.20031884    -0.32600
S692        S  0.42972728  0.54018870  0.12760987    -0.32600
H693        H  0.46169054  0.55484844  0.10679685     0.28700
H694        H  0.52132476  0.37494827  0.16296051     0.28700
H695        H  0.52596381  0.43249460  0.13174365     0.19300
H696        H  0.41355377  0.49447738  0.19456350     0.19300
C697        C  0.14898494  0.47290295  0.47047719    -0.06500
C698        C  0.16809958  0.44086426  0.48696518    -0.17600
C699        C  0.20716867  0.43151197  0.47745638     0.10700
C700        C  0.22968380  0.45753627  0.45411029    -0.06400
C701        C  0.20703313  0.48330152  0.43102333    -0.17700
C702        C  0.16759991  0.49163933  0.43935000     0.10700
S703        S  0.22824501  0.38699993  0.49637164    -0.32600
S704        S  0.14280275  0.52706418  0.40935948    -0.32600
H705        H  0.11737679  0.54117827  0.43860740     0.28700
H706        H  0.19540943  0.37494824  0.51759513     0.28700
H707        H  0.15186360  0.42243993  0.50643487     0.19300
H708        H  0.21926055  0.49945921  0.40794443     0.19300
C709        C  0.30238309  0.42997385  0.44132956    -0.06500
C710        C  0.34381509  0.43136336  0.44718267    -0.17600
C711        C  0.37151010  0.40970657  0.42420308     0.10700
C712        C  0.35897378  0.38374186  0.39340885    -0.06400
C713        C  0.31776942  0.37771337  0.39249505    -0.17700
C714        C  0.29003564  0.40175381  0.41220201     0.10700
S715        S  0.42315816  0.41617481  0.43490835    -0.32600
S716        S  0.23973382  0.39486467  0.39617497    -0.32600
H717        H  0.24705140  0.37465732  0.36075336     0.28700
H718        H  0.41929951  0.44323257  0.46604587     0.28700
H719        H  0.35514640  0.45096481  0.46937567     0.19300
H720        H  0.30594846  0.35338940  0.37613758     0.19300
C721        C  0.99446579  0.71046314  0.46338183    -0.06500
C722        C  0.96676900  0.68841611  0.44151234    -0.17600
C723        C  0.96547857  0.64714351  0.44308393     0.10700
C724        C  0.99323548  0.62620804  0.46617269    -0.06400
C725        C  0.02081702  0.64737435  0.48699298    -0.17700
C726        C  0.02244579  0.68773979  0.48635381     0.10700
S727        S  0.92629823  0.62343349  0.41645097    -0.32600
S728        S  0.06172734  0.70382560  0.51873618    -0.32600
H729        H  0.06837026  0.74037862  0.50543420     0.28700
H730        H  0.91597186  0.59950704  0.44775210     0.28700
H731        H  0.94464436  0.70316918  0.42441919     0.19300
H732        H  0.04231581  0.63175802  0.50438752     0.19300
C733        C  0.74759330  0.95072635  0.47343420    -0.06500
C734        C  0.72676698  0.96909367  0.44269247    -0.17600
C735        C  0.69179792  0.98927316  0.45013300     0.10700
C736        C  0.67293096  0.98539080  0.48679538    -0.06400
C737        C  0.68907106  0.95853928  0.51322950    -0.17700
C738        C  0.72387233  0.93825641  0.50474776     0.10700
S739        S  0.67585166  0.02243179  0.41278040    -0.32600
S740        S  0.72174496  0.88767487  0.51744285    -0.32600
H741        H  0.73960927  0.87438290  0.48260987     0.28700
H742        H  0.66959935  0.05350732  0.43952362     0.28700
H743        H  0.74217074  0.97612679  0.41614217     0.19300
H744        H  0.67193355  0.94924836  0.53794260     0.19300
C745        C  0.91287578  0.89111506  0.33568378    -0.06500
C746        C  0.89264363  0.91966364  0.31345753    -0.17600
C747        C  0.91125895  0.94809500  0.28991080     0.10700
C748        C  0.95307280  0.94915024  0.28567671    -0.06400
C749        C  0.97286007  0.92025317  0.30794353    -0.17700
C750        C  0.95472015  0.89493037  0.33455910     0.24300
S751        S  0.87899178  0.98062648  0.26445227    -0.32600
S752        S  0.98842511  0.87082310  0.36725041    -0.32600
H753        H  0.01901073  0.89815182  0.36595284     0.28700
H754        H  0.84767619  0.97906007  0.29099501     0.28700
H755        H  0.86097675  0.91963561  0.31432163     0.19300
H756        H  0.00404998  0.91661024  0.30566204     0.19300
C757        C  0.96201637  0.78126659  0.43981849    -0.06500
C758        C  0.95849350  0.77521432  0.39871653    -0.17600
C759        C  0.93576960  0.79953126  0.37347546     0.10700
C760        C  0.91427755  0.83296161  0.38833617    -0.06400
C761        C  0.91556812  0.83679980  0.42963654    -0.17700
C762        C  0.93938690  0.81406534  0.45465001     0.10700
S763        S  0.93690527  0.78525212  0.32233947    -0.32600
S764        S  0.93995418  0.83206560  0.50490863    -0.32600
H765        H  0.93264567  0.87161298  0.49700439     0.28700
H766        H  0.93521333  0.82268705  0.30695322     0.28700
H767        H  0.97519138  0.75168835  0.38535055     0.19300
H768        H  0.89665170  0.85736311  0.44410432     0.19300
C769        C  0.86137249  0.89148461  0.38860699    -0.06500
C770        C  0.88022020  0.91886431  0.41407451    -0.17600
C771        C  0.85978398  0.94385118  0.44082904     0.10700
C772        C  0.81788832  0.94226529  0.44427128    -0.06400
C773        C  0.79957297  0.91671882  0.41671546    -0.17700
C774        C  0.81958754  0.89603635  0.38698875     0.10700
S775        S  0.89049497  0.97465569  0.47095743    -0.32600
S776        S  0.78942450  0.88310663  0.34496076    -0.32600
H777        H  0.75835748  0.90943558  0.35206873     0.28700
H778        H  0.86748364  0.00816077  0.46644449     0.28700
H779        H  0.91197327  0.91993778  0.41399029     0.19300
H780        H  0.76837944  0.91260598  0.41668131     0.19300
C781        C  0.80560454  0.78190448  0.29268413    -0.06500
C782        C  0.81372480  0.77773142  0.33324120    -0.17600
C783        C  0.83693768  0.80380596  0.35568884     0.10700
C784        C  0.85957146  0.83331287  0.33744169    -0.06400
C785        C  0.85335565  0.83641697  0.29635466    -0.17700
C786        C  0.82355418  0.81520019  0.27565061     0.10700
S787        S  0.83376789  0.79972497  0.40834115    -0.32600
S788        S  0.80610839  0.83552650  0.23024621    -0.32600
H789        H  0.82895949  0.86954141  0.23089352     0.28700
H790        H  0.79679865  0.78176200  0.40927374     0.28700
H791        H  0.79917517  0.75518990  0.34917174     0.19300
H792        H  0.86935086  0.85775631  0.28037427     0.19300
C793        C  0.60587348  0.25603953  0.50487188    -0.06500
C794        C  0.58219655  0.23028520  0.52374479    -0.17600
C795        C  0.54153162  0.23137266  0.52012546     0.10700
C796        C  0.52169888  0.25986075  0.49532906    -0.06400
C797        C  0.54658206  0.28920290  0.48073116    -0.17700
C798        C  0.58801920  0.28713846  0.48448706     0.10700
S799        S  0.52124960  0.19358930  0.54995668    -0.32600
S800        S  0.61632935  0.32503946  0.46240073    -0.32600
H801        H  0.65064795  0.31970319  0.48465623     0.28700
H802        H  0.48895429  0.18412915  0.52814724     0.28700
H803        H  0.59616689  0.20759500  0.54081756     0.19300
H804        H  0.53434055  0.31439469  0.46667410     0.19300
C805        C  0.76191462  0.08909815  0.48651595    -0.06500
C806        C  0.78291657  0.07604401  0.45323442    -0.17600
C807        C  0.79421892  0.03637289  0.44796100     0.10700
C808        C  0.78592943  0.00936462  0.47793194    -0.06400
C809        C  0.76285699  0.02398464  0.50991905    -0.17700
C810        C  0.75107562  0.06233425  0.51440119     0.10700
S811        S  0.81616238  0.02148618  0.40212200    -0.32600
S812        S  0.72191595  0.07519103  0.55667770    -0.32600
H813        H  0.70020639  0.10488095  0.53849660     0.28700
H814        H  0.80975813  0.05661661  0.38238472     0.28700
H815        H  0.79082583  0.09719985  0.43154974     0.19300
H816        H  0.75326046  0.00456935  0.53244529     0.19300
C817        C  0.91079706  0.22251142  0.50199462    -0.06500
C818        C  0.92654434  0.19367647  0.52725699    -0.17600
C819        C  0.96752678  0.18724408  0.53214101     0.10700
C820        C  0.99429283  0.21048693  0.51139575    -0.06400
C821        C  0.97728381  0.23897686  0.48603987    -0.17700
C822        C  0.93720127  0.24544645  0.48136184     0.10700
S823        S  0.98393749  0.14906431  0.56404952    -0.32600
S824        S  0.92112769  0.28219940  0.44724961    -0.32600
H825        H  0.95816158  0.29713861  0.43786304     0.28700
H826        H  0.94801833  0.14364828  0.58314290     0.28700
H827        H  0.90649225  0.17568359  0.54328107     0.19300
H828        H  0.99659984  0.25626161  0.46846609     0.19300
C829        C  0.80927445  0.26828747  0.71634105    -0.06500
C830        C  0.84221140  0.25641114  0.69423952    -0.17600
C831        C  0.84041357  0.25759052  0.65313243     0.10700
C832        C  0.80702454  0.27448675  0.63531222    -0.06400
C833        C  0.78477770  0.30059029  0.65811648    -0.17700
C834        C  0.78598735  0.29819921  0.69901658     0.10700
S835        S  0.87879048  0.23384317  0.62548345    -0.32600
S836        S  0.75420410  0.32986536  0.72706102    -0.32600
H837        H  0.73621064  0.34905708  0.69557467     0.28700
H838        H  0.87223434  0.25539261  0.59132983     0.28700
H839        H  0.86572735  0.23995572  0.70758827     0.19300
H840        H  0.76248140  0.31833672  0.64431416     0.19300
C841        C  0.79426526  0.96077830  0.59855437    -0.06500
C842        C  0.79251824  0.92407771  0.57921340    -0.17600
C843        C  0.80394176  0.92019771  0.53973492     0.10700
C844        C  0.81156352  0.95422825  0.51884316    -0.06400
C845        C  0.82783666  0.98501095  0.54207643    -0.17700
C846        C  0.81706954  0.98972616  0.58124988     0.10700
S847        S  0.81531413  0.87247675  0.51983423    -0.32600
S848        S  0.83161998  0.03388904  0.60655933    -0.32600
H849        H  0.83626221  0.01703586  0.64355101     0.28700
H850        H  0.84309818  0.88543889  0.49300318     0.28700
H851        H  0.78305040  0.89862596  0.59484376     0.19300
H852        H  0.84153321  0.00968194  0.52859175     0.19300
C853        C  0.78409614  0.12162839  0.74928322    -0.06500
C854        C  0.78551949  0.14088379  0.78590240    -0.17600
C855        C  0.79898705  0.17945869  0.78993472     0.10700
C856        C  0.80819262  0.20150987  0.75611290    -0.06400
C857        C  0.81413688  0.17857185  0.72151793    -0.17700
C858        C  0.80189046  0.13985399  0.71769904     0.10700
S859        S  0.80476343  0.19794355  0.83927174    -0.32600
S860        S  0.80995289  0.11527746  0.67132296    -0.32600
H861        H  0.82289415  0.08014150  0.68781206     0.28700
H862        H  0.84519987  0.20414410  0.83482884     0.28700
H863        H  0.77681626  0.12544811  0.81182916     0.19300
H864        H  0.82466234  0.19018613  0.69486713     0.19300
C865        C  0.78846445  0.20389846  0.20213470    -0.06500
C866        C  0.80417914  0.23265050  0.17747526    -0.17600
C867        C  0.84305417  0.24450761  0.18284324     0.10700
C868        C  0.86734816  0.22255731  0.20806413    -0.06400
C869        C  0.85465776  0.18471138  0.21761983    -0.17700
C870        C  0.81501615  0.17411914  0.21215791     0.10700
S871        S  0.85830072  0.29000285  0.16183917    -0.32600
S872        S  0.79800918  0.12649050  0.22540662    -0.32600
H873        H  0.83523528  0.11090736  0.23418005     0.28700
H874        H  0.82469995  0.29646105  0.13866718     0.28700
H875        H  0.78454315  0.25152401  0.16145991     0.19300
H876        H  0.87471383  0.16474651  0.23176618     0.19300
C877        C  0.66787951  0.13444286  0.14620758    -0.06500
C878        C  0.66923403  0.13061226  0.18738939    -0.17600
C879        C  0.69478278  0.15246533  0.21253593     0.10700
C880        C  0.71731251  0.18465988  0.19803079    -0.06400
C881        C  0.71714265  0.18696594  0.15655024    -0.17700
C882        C  0.69595423  0.16118253  0.13116659     0.10700
S883        S  0.70098637  0.13268800  0.26100553    -0.32600
S884        S  0.70423271  0.16485278  0.07906046    -0.32600
H885        H  0.73729644  0.18913451  0.08119527     0.28700
H886        H  0.66363435  0.11582208  0.26384364     0.28700
H887        H  0.65230007  0.10776206  0.20024926     0.19300
H888        H  0.73497374  0.20892459  0.14335064     0.19300
C889        C  0.75304729  0.22366259  0.35062747    -0.06500
C890        C  0.71722234  0.22761991  0.33080730    -0.17600
C891        C  0.71339133  0.21869000  0.29063915     0.10700
C892        C  0.74672572  0.20553378  0.26847827    -0.06400
C893        C  0.78141452  0.19821022  0.29086670    -0.17700
C894        C  0.78470840  0.20672630  0.33081491     0.10700
S895        S  0.66588565  0.22667431  0.26811958    -0.32600
S896        S  0.83064493  0.19535466  0.35485863    -0.32600
H897        H  0.81358544  0.18163354  0.38934443     0.28700
H898        H  0.64556124  0.23915828  0.30177721     0.28700
H899        H  0.69217979  0.23858237  0.34698366     0.19300
H900        H  0.80843313  0.18919905  0.27848164     0.19300
C901        C  0.76387480  0.63298963  0.28686377    -0.06500
C902        C  0.80073525  0.64857454  0.27870807    -0.17600
C903        C  0.80857668  0.68792896  0.28641588     0.10700
C904        C  0.77631728  0.71315672  0.29498082    -0.06400
C905        C  0.74511885  0.69550420  0.31514681    -0.17700
C906        C  0.73878936  0.65514388  0.31149865     0.10700
S907        S  0.85724580  0.70639620  0.27757807    -0.32600
S908        S  0.69472192  0.63590549  0.33229168    -0.32600
H909        H  0.71405106  0.60349747  0.34838210     0.28700
H910        H  0.87500349  0.67051960  0.26796465     0.28700
H911        H  0.82234303  0.63069313  0.26394087     0.19300
H912        H  0.72234243  0.71196548  0.32903640     0.19300
C913        C  0.60361013  0.47646490  0.23110565    -0.06500
C914        C  0.59072197  0.45043129  0.25962690    -0.17600
C915        C  0.55061633  0.44668510  0.26885377     0.10700
C916        C  0.52258927  0.47021275  0.24918889    -0.06400
C917        C  0.53767398  0.49688225  0.22108302    -0.17700
C918        C  0.57668781  0.49944296  0.21139012     0.10700
S919        S  0.53767231  0.41377561  0.30680061    -0.32600
S920        S  0.59033218  0.53398015  0.17466035    -0.32600
H921        H  0.62285124  0.51278656  0.16058350     0.28700
H922        H  0.57367479  0.39367705  0.30872459     0.28700
H923        H  0.61252753  0.43399933  0.27571237     0.19300
H924        H  0.51796330  0.51617191  0.20558483     0.19300
C925        C  0.75152837  0.34239413  0.23293726    -0.06500
C926        C  0.71978413  0.32468264  0.21214652    -0.17600
C927        C  0.71615638  0.28357631  0.20686079     0.10700
C928        C  0.74458795  0.25844050  0.22387717    -0.06400
C929        C  0.77594568  0.27756336  0.24476065    -0.17700
C930        C  0.78017991  0.31774762  0.24856523     0.10700
S931        S  0.67497550  0.26529603  0.17884011    -0.32600
S932        S  0.82478009  0.33513693  0.27134900    -0.32600
H933        H  0.83353703  0.36050374  0.24069825     0.28700
H934        H  0.66296316  0.30100511  0.16295465     0.28700
H935        H  0.69742511  0.34333333  0.19972523     0.19300
H936        H  0.79975907  0.26055580  0.25672452     0.19300
C937        C  0.89763735  0.51757604  0.22310702    -0.06500
C938        C  0.91611196  0.49675916  0.19292865    -0.17600
C939        C  0.95401576  0.50681364  0.18055231     0.10700
C940        C  0.97541717  0.53695862  0.20168801    -0.06400
C941        C  0.95120150  0.56434442  0.22047133    -0.17700
C942        C  0.91436055  0.55353607  0.23492236     0.10700
S943        S  0.97574133  0.47658715  0.14231997    -0.32600
S944        S  0.89086231  0.58616944  0.26934946    -0.32600
H945        H  0.86950504  0.55754662  0.28885762     0.28700
H946        H  0.94500198  0.44973468  0.13755062     0.28700
H947        H  0.90081324  0.47246729  0.17927043     0.19300
H948        H  0.96239086  0.59285028  0.22686483     0.19300
C949        C  0.78143771  0.51678874  0.52032675    -0.06500
C950        C  0.80064083  0.48629219  0.54090764    -0.17600
C951        C  0.83926920  0.47632002  0.53307833     0.10700
C952        C  0.85952618  0.49782214  0.50491125    -0.06400
C953        C  0.84435827  0.53493491  0.49536773    -0.17700
C954        C  0.80645465  0.54604287  0.50701068     0.10700
S955        S  0.85958219  0.43552486  0.55892582    -0.32600
S956        S  0.79981595  0.59508232  0.52586399    -0.32600
H957        H  0.83601038  0.60963135  0.51322087     0.28700
H958        H  0.89466811  0.45508214  0.56800421     0.28700
H959        H  0.78402331  0.46707536  0.55929940     0.19300
H960        H  0.86261496  0.55589235  0.48087943     0.19300
C961        C  0.72461843  0.52537944  0.46520452    -0.06500
C962        C  0.69694061  0.50178164  0.44420310    -0.17600
C963        C  0.70360086  0.48947314  0.40546615     0.10700
C964        C  0.73531460  0.50488781  0.38450046    -0.06400
C965        C  0.75478238  0.53716692  0.40132988    -0.17700
C966        C  0.74756293  0.54911745  0.44049402     0.10700
S967        S  0.67304252  0.45073812  0.38618455    -0.32600
S968        S  0.75012625  0.60078831  0.44886272    -0.32600
H969        H  0.72763413  0.60034869  0.48315819     0.28700
H970        H  0.70330640  0.43138733  0.36575600     0.28700
H971        H  0.67540218  0.48519598  0.45970590     0.19300
H972        H  0.77321573  0.55484654  0.38308130     0.19300
C973        C  0.70941218  0.53066212  0.54100838    -0.06500
C974        C  0.66830962  0.53145937  0.53476910    -0.17600
C975        C  0.64195598  0.55360282  0.55843486     0.10700
C976        C  0.65646895  0.57979334  0.58810203    -0.06400
C977        C  0.69555014  0.57252636  0.59941026    -0.17700
C978        C  0.72169757  0.54892598  0.57748828     0.10700
S979        S  0.59044635  0.55072264  0.54645493    -0.32600
S980        S  0.76737420  0.53953732  0.60293757    -0.32600
H981        H  0.77076686  0.57648174  0.62123097     0.28700
H982        H  0.59221910  0.51693945  0.52260447     0.28700
H983        H  0.65608792  0.51524184  0.51061765     0.19300
H984        H  0.70600203  0.58447566  0.62693884     0.19300
C985        C  0.73472098  0.46574613  0.50323038    -0.06500
C986        C  0.71124731  0.44314551  0.52752484    -0.17600
C987        C  0.71290792  0.40213502  0.52587775     0.10700
C988        C  0.73848169  0.38289527  0.49861909    -0.06400
C989        C  0.75939866  0.40503626  0.47276711    -0.17700
C990        C  0.75889986  0.44524367  0.47488811     0.10700
S991        S  0.68344869  0.37590554  0.56050680    -0.32600
S992        S  0.79478363  0.46752665  0.44379195    -0.32600
H993        H  0.79236533  0.44017586  0.41266401     0.28700
H994        H  0.66077346  0.40764049  0.57418264     0.28700
H995        H  0.69313821  0.45733143  0.54932854     0.19300
H996        H  0.77872777  0.39065054  0.45197886     0.19300
C997        C  0.49147176  0.72614649  0.98311468    -0.06500
C998        C  0.47841613  0.70255387  0.95155687    -0.17600
C999        C  0.48783032  0.66251991  0.94885697     0.10700
C1000       C  0.50897535  0.64391937  0.97967906    -0.06400
C1001       C  0.52134859  0.66656955  0.01102877    -0.17700
C1002       C  0.51428860  0.70643858  0.01330731     0.10700
S1003       S  0.47392736  0.63796144  0.90381750    -0.32600
S1004       S  0.53859126  0.72612234  0.05663795    -0.32600
H1005       H  0.53036071  0.76499272  0.05452586     0.28700
H1006       H  0.51047892  0.61919547  0.89923066     0.28700
H1007       H  0.46313761  0.71572462  0.92724652     0.19300
H1008       H  0.53735529  0.65270812  0.03461906     0.19300
C1009       C  0.47695351  0.93665095  0.70081997    -0.06500
C1010       C  0.50695549  0.91548853  0.68107364    -0.17600
C1011       C  0.51399652  0.92111086  0.64146245     0.10700
C1012       C  0.49035589  0.94864300  0.62164532    -0.06400
C1013       C  0.45322148  0.95735905  0.63771123    -0.17700
C1014       C  0.44508318  0.94713044  0.67659848     0.10700
S1015       S  0.55675638  0.89770521  0.62016683    -0.32600
S1016       S  0.39526412  0.94889411  0.69396985    -0.32600
H1017       H  0.40116511  0.92019857  0.72227715     0.28700
H1018       H  0.56158054  0.86903043  0.64880137     0.28700
H1019       H  0.52990285  0.90113000  0.69730457     0.19300
H1020       H  0.43130726  0.97267652  0.62067794     0.19300
C1021       C  0.53244806  0.95857518  0.74415851    -0.06500
C1022       C  0.55579420  0.94068521  0.77287023    -0.17600
C1023       C  0.59678765  0.94690954  0.77528230     0.10700
C1024       C  0.61606217  0.97108831  0.74760953    -0.06400
C1025       C  0.59347312  0.98771387  0.71865812    -0.17700
C1026       C  0.55307070  0.98289178  0.71667120     0.10700
S1027       S  0.62184043  0.92320978  0.81503567    -0.32600
S1028       S  0.53082340  0.00927269  0.67691426    -0.32600
H1029       H  0.55587175  0.04176075  0.67865247     0.28700
H1030       H  0.65372443  0.91019622  0.79266819     0.28700
H1031       H  0.54200996  0.92271334  0.79447225     0.19300
H1032       H  0.60771060  0.00551259  0.69711169     0.19300
C1033       C  0.36235277  0.89010102  0.88995961    -0.06500
C1034       C  0.32094362  0.89661335  0.88570386    -0.17600
C1035       C  0.30018764  0.92804583  0.90529775     0.10700
C1036       C  0.31696496  0.94804377  0.93848096    -0.06400
C1037       C  0.35663383  0.93811829  0.94549856    -0.17700
C1038       C  0.37961596  0.91364498  0.92083243     0.10700
S1039       S  0.25526959  0.94535344  0.88305280    -0.32600
S1040       S  0.43178123  0.91731804  0.92889986    -0.32600
H1041       H  0.43287750  0.94879742  0.95577579     0.28700
H1042       H  0.25186750  0.91624604  0.85373974     0.28700
H1043       H  0.30470233  0.87998680  0.86437076     0.19300
H1044       H  0.37151891  0.95250537  0.96947882     0.19300
C1045       C  0.41696011  0.83808771  0.88895649    -0.06500
C1046       C  0.39894439  0.81251435  0.91556724    -0.17600
C1047       C  0.42004026  0.78786438  0.94171444     0.10700
C1048       C  0.46173739  0.79099617  0.94665755    -0.06400
C1049       C  0.47956964  0.81710788  0.92054262    -0.17700
C1050       C  0.45929590  0.83949069  0.89234495     0.10700
S1051       S  0.39196420  0.75157694  0.96648047    -0.32600
S1052       S  0.49093974  0.87428587  0.86889783    -0.32600
H1053       H  0.52327797  0.84893642  0.86436849     0.28700
H1054       H  0.35558849  0.75794630  0.94795184     0.28700
H1055       H  0.36730835  0.81053924  0.91436275     0.19300
H1056       H  0.51053452  0.82250887  0.92289071     0.19300
C1057       C  0.41134221  0.88780829  0.82905003    -0.06500
C1058       C  0.43717993  0.86841124  0.80259566    -0.17600
C1059       C  0.46399694  0.88827291  0.77791736     0.10700
C1060       C  0.46224140  0.92975803  0.77391274    -0.06400
C1061       C  0.43151424  0.94787827  0.79554968    -0.17700
C1062       C  0.40721969  0.92883248  0.82239982     0.10700
S1063       S  0.50078733  0.85893899  0.75366499    -0.32600
S1064       S  0.36756378  0.95911951  0.84043589    -0.32600
H1065       H  0.38940038  0.99373228  0.84404247     0.28700
H1066       H  0.49370303  0.82361492  0.77257108     0.28700
H1067       H  0.43912754  0.83706293  0.80418992     0.19300
H1068       H  0.42420438  0.97794722  0.79052735     0.19300
C1069       C  0.65343732  0.76941018  0.25216904    -0.06500
C1070       C  0.66529252  0.77068197  0.29193037    -0.17600
C1071       C  0.70496638  0.77616458  0.30224360     0.10700
C1072       C  0.73329337  0.77615780  0.27217027    -0.06400
C1073       C  0.71888767  0.78954287  0.23553285    -0.17700
C1074       C  0.67989742  0.78349554  0.22433804     0.10700
S1075       S  0.71702975  0.78474366  0.35301771    -0.32600
S1076       S  0.66803680  0.78845661  0.17316763    -0.32600
H1077       H  0.65355167  0.75024442  0.16920087     0.28700
H1078       H  0.74474013  0.81327100  0.34450797     0.28700
H1079       H  0.64403266  0.76616432  0.31481067     0.19300
H1080       H  0.73889057  0.79666175  0.21241026     0.19300
C1081       C  0.49062378  0.59545923  0.25045361    -0.06500
C1082       C  0.51132613  0.57453815  0.27886287    -0.17600
C1083       C  0.50016873  0.53674150  0.28872700     0.10700
C1084       C  0.47136986  0.51649453  0.26510579    -0.06400
C1085       C  0.44438204  0.54145244  0.24673056    -0.17700
C1086       C  0.45399488  0.58002634  0.23797400     0.10700
S1087       S  0.52599609  0.51567918  0.32961182    -0.32600
S1088       S  0.41686185  0.60832739  0.21358874    -0.32600
H1089       H  0.42138710  0.64100006  0.23867899     0.28700
H1090       H  0.49983482  0.48509137  0.33519544     0.28700
H1091       H  0.53632528  0.58756278  0.29371002     0.19300
H1092       H  0.41491147  0.53177369  0.24113027     0.19300
C1093       C  0.47334970  0.77974604  0.10289495    -0.06500
C1094       C  0.48204404  0.81514431  0.08442619    -0.17600
C1095       C  0.47503260  0.81856290  0.04372994     0.10700
C1096       C  0.46717319  0.78424435  0.02161039    -0.06400
C1097       C  0.44578732  0.75585437  0.04227206    -0.17700
C1098       C  0.44783195  0.75403280  0.08286460     0.10700
S1099       S  0.46235872  0.86596035  0.02535705    -0.32600
S1100       S  0.42097393  0.71644849  0.10746350    -0.32600
H1101       H  0.39527980  0.70757356  0.07616062     0.28700
H1102       H  0.44051819  0.85205303  0.99313147     0.28700
H1103       H  0.49425273  0.83938978  0.10106594     0.19300
H1104       H  0.43330981  0.73084967  0.02741919     0.19300
C1105       C  0.52344719  0.96328003  0.20238597    -0.06500
C1106       C  0.48909558  0.94153041  0.19321591    -0.17600
C1107       C  0.48245244  0.90426208  0.20797449     0.10700
C1108       C  0.51156566  0.88623780  0.23074326    -0.06400
C1109       C  0.54857803  0.90391280  0.23296395    -0.17700
C1110       C  0.55547350  0.94085031  0.21762649     0.10700
S1111       S  0.43709086  0.87982911  0.19603564    -0.32600
S1112       S  0.60459922  0.95996222  0.22222846    -0.32600
H1113       H  0.62377654  0.92434203  0.22931667     0.28700
H1114       H  0.41733175  0.91145883  0.17899168     0.28700
H1115       H  0.46573273  0.95308113  0.17634021     0.19300
H1116       H  0.57239993  0.88891071  0.24756291     0.19300
C1117       C  0.30666325  0.78332834  0.78535752    -0.06500
C1118       C  0.33727952  0.76770212  0.80885096    -0.17600
C1119       C  0.36600601  0.79074163  0.82927603     0.10700
C1120       C  0.36169140  0.83253212  0.83354006    -0.06400
C1121       C  0.33422903  0.84808538  0.80668493    -0.17700
C1122       C  0.30824344  0.82521592  0.78269688     0.10700
S1123       S  0.41166834  0.76557527  0.83986523    -0.32600
S1124       S  0.28125278  0.85198352  0.74648709    -0.32600
H1125       H  0.28296423  0.88896283  0.76486365     0.28700
H1126       H  0.39764344  0.72712107  0.83803029     0.28700
H1127       H  0.34085091  0.73652664  0.80951491     0.19300
H1128       H  0.33385479  0.87941081  0.80367536     0.19300
C1129       C  0.98954593  0.76387146  0.50938873    -0.06500
C1130       C  0.01727711  0.78304772  0.53374463    -0.17600
C1131       C  0.02342878  0.77225428  0.57265780     0.10700
C1132       C  0.00046026  0.74215091  0.58831895    -0.06400
C1133       C  0.96636126  0.73114269  0.56780415    -0.17700
C1134       C  0.95945454  0.74349051  0.52948133     0.10700
S1135       S  0.06257211  0.79580224  0.60011356    -0.32600
S1136       S  0.91355889  0.73050530  0.50580403    -0.32600
H1137       H  0.90252012  0.70164997  0.53225605     0.28700
H1138       H  0.06752810  0.82771937  0.57533917     0.28700
H1139       H  0.03734099  0.80346822  0.52274236     0.19300
H1140       H  0.94537555  0.71222801  0.58143706     0.19300
C1141       C  0.14991381  0.76341963  0.76405015    -0.06500
C1142       C  0.16765464  0.75264752  0.79983810    -0.17600
C1143       C  0.20742253  0.76140743  0.80761883     0.10700
C1144       C  0.23123250  0.77303415  0.77640080    -0.06400
C1145       C  0.21055950  0.79440385  0.74724519    -0.17700
C1146       C  0.17046369  0.78988733  0.74068020     0.10700
S1147       S  0.21906294  0.77749798  0.85681958    -0.32600
S1148       S  0.14900723  0.81370570  0.69859873    -0.32600
H1149       H  0.17848072  0.84180193  0.69412419     0.28700
H1150       H  0.25615264  0.79252275  0.84794922     0.28700
H1151       H  0.15014308  0.73951290  0.82236030     0.19300
H1152       H  0.22592907  0.80760581  0.72362179     0.19300
C1153       C  0.27289177  0.46840798  0.59308751    -0.06500
C1154       C  0.25026822  0.49341566  0.57105283    -0.17600
C1155       C  0.25092206  0.49295836  0.53050766     0.10700
C1156       C  0.27465512  0.46452039  0.50891321    -0.06400
C1157       C  0.29765184  0.43911047  0.53172558    -0.17700
C1158       C  0.29779748  0.44132349  0.57298788     0.10700
S1159       S  0.21781923  0.53018393  0.51237401    -0.32600
S1160       S  0.33166408  0.40944497  0.59765467    -0.32600
H1161       H  0.34742058  0.43953890  0.62138039     0.28700
H1162       H  0.23212995  0.53548322  0.47561778     0.28700
H1163       H  0.23120869  0.51421133  0.58594037     0.19300
H1164       H  0.31586503  0.41723350  0.51769260     0.19300
C1165       C  0.26743849  0.62966391  0.75497142    -0.06500
C1166       C  0.24895062  0.64686741  0.78772570    -0.17600
C1167       C  0.25713852  0.68565237  0.80012456     0.10700
C1168       C  0.28097217  0.70997520  0.77671084    -0.06400
C1169       C  0.30715136  0.68870853  0.75183208    -0.17700
C1170       C  0.29876284  0.65050606  0.73860674     0.10700
S1171       S  0.25430845  0.69283298  0.85214558    -0.32600
S1172       S  0.32832860  0.63056151  0.69947317    -0.32600
H1173       H  0.29948431  0.60548727  0.68387653     0.28700
H1174       H  0.28396855  0.72112901  0.85406157     0.28700
H1175       H  0.23094611  0.62876053  0.80599411     0.19300
H1176       H  0.33016555  0.70421426  0.73706163     0.19300
C1177       C  0.28911543  0.58332724  0.46332614    -0.06500
C1178       C  0.27854907  0.56656484  0.42659940    -0.17600
C1179       C  0.28423198  0.52630700  0.41956311     0.10700
C1180       C  0.29445196  0.50283221  0.45164365    -0.06400
C1181       C  0.31879249  0.52175803  0.47982030    -0.17700
C1182       C  0.31487884  0.56149730  0.48721145     0.10700
S1183       S  0.28334337  0.50772310  0.36981157    -0.32600
S1184       S  0.34079944  0.58061798  0.52938815    -0.32600
H1185       H  0.35713555  0.61115972  0.50804655     0.28700
H1186       H  0.30724545  0.47522162  0.37729003     0.28700
H1187       H  0.26544560  0.58429110  0.40402093     0.19300
H1188       H  0.33535878  0.50517537  0.50097859     0.19300
C1189       C  0.26668101  0.74022177  0.63715511    -0.06500
C1190       C  0.23887724  0.72408635  0.66074913    -0.17600
C1191       C  0.24143296  0.72721623  0.70110304     0.10700
C1192       C  0.27144484  0.75096645  0.71997411    -0.06400
C1193       C  0.29977247  0.76735179  0.69542396    -0.17700
C1194       C  0.29807458  0.76167646  0.65436237     0.10700
S1195       S  0.20445545  0.69963326  0.72608433    -0.32600
S1196       S  0.33694914  0.78243870  0.62599053    -0.32600
H1197       H  0.31823278  0.78079181  0.58929738     0.28700
H1198       H  0.19988577  0.66985915  0.69755704     0.28700
H1199       H  0.21512185  0.70769747  0.64719900     0.19300
H1200       H  0.32388003  0.78371046  0.70808860     0.19300
C1201       C  0.11676109  0.75380188  0.45078783    -0.06500
C1202       C  0.10093479  0.79054713  0.46183318    -0.17600
C1203       C  0.06062037  0.79849974  0.45646012     0.10700
C1204       C  0.03562032  0.76733656  0.44513462    -0.06400
C1205       C  0.05393845  0.73900008  0.42053273    -0.17700
C1206       C  0.09396786  0.73076843  0.42447296     0.10700
S1207       S  0.04377348  0.84805491  0.46327273    -0.32600
S1208       S  0.11245285  0.68913644  0.39744002    -0.32600
H1209       H  0.14740412  0.70777988  0.38750393     0.28700
H1210       H  0.00961316  0.84295899  0.44118667     0.28700
H1211       H  0.11926081  0.81227771  0.47612449     0.19300
H1212       H  0.03634712  0.71888429  0.40317728     0.19300
C1213       C  0.55156245  0.77345927  0.52643940    -0.06500
C1214       C  0.52205734  0.79749087  0.54369754    -0.17600
C1215       C  0.52033969  0.83715899  0.53557675     0.10700
C1216       C  0.55030514  0.85313783  0.51280250    -0.06400
C1217       C  0.58612272  0.83230095  0.51047868    -0.17700
C1218       C  0.58732694  0.79249346  0.52059670     0.10700
S1219       S  0.47800175  0.86539239  0.55088192    -0.32600
S1220       S  0.63268860  0.76921689  0.53493669    -0.32600
H1221       H  0.65658047  0.80170455  0.52824701     0.28700
H1222       H  0.46362087  0.83835056  0.57766199     0.28700
H1223       H  0.49671769  0.78487076  0.55727663     0.19300
H1224       H  0.61244926  0.84669876  0.50089664     0.19300
C1225       C  0.56331678  0.69977808  0.53665964    -0.06500
C1226       C  0.59014686  0.67308402  0.51962586    -0.17600
C1227       C  0.61369748  0.64659855  0.54102517     0.10700
C1228       C  0.60876652  0.64184319  0.58272388    -0.06400
C1229       C  0.58401656  0.67062099  0.60014031    -0.17700
C1230       C  0.56131770  0.69817611  0.57852351     0.10700
S1231       S  0.65180244  0.62429231  0.51158691    -0.32600
S1232       S  0.52875041  0.72952958  0.60618342    -0.32600
H1233       H  0.54653745  0.72458009  0.64305882     0.28700
H1234       H  0.65912059  0.65688186  0.48826593     0.28700
H1235       H  0.59452627  0.67326282  0.48842926     0.19300
H1236       H  0.58054358  0.66998793  0.63155900     0.19300
C1237       C  0.52105087  0.73602037  0.38723789    -0.06500
C1238       C  0.55292084  0.75778327  0.40169201    -0.17600
C1239       C  0.56927265  0.75094271  0.43894386     0.10700
C1240       C  0.55070694  0.72432201  0.46446890    -0.06400
C1241       C  0.52782085  0.69534248  0.44484276    -0.17700
C1242       C  0.51078563  0.70235654  0.40797909     0.10700
S1243       S  0.62057534  0.76202568  0.44214062    -0.32600
S1244       S  0.47546010  0.66770837  0.38928629    -0.32600
H1245       H  0.45352379  0.69471901  0.36755209     0.28700
H1246       H  0.63026638  0.72759106  0.46180797     0.28700
H1247       H  0.56724181  0.77805770  0.38249763     0.19300
H1248       H  0.51702786  0.67092135  0.46124176     0.19300
C1249       C  0.49522331  0.73013117  0.50868783    -0.06500
C1250       C  0.47394577  0.70132642  0.52797853    -0.17600
C1251       C  0.43278173  0.69960936  0.52537179     0.10700
C1252       C  0.41167033  0.72601784  0.50107764    -0.06400
C1253       C  0.43254256  0.75392933  0.48142384    -0.17700
C1254       C  0.47289564  0.75679057  0.48454977     0.10700
S1255       S  0.40968029  0.66316177  0.55443159    -0.32600
S1256       S  0.49294311  0.79696348  0.45743969    -0.32600
H1257       H  0.46442102  0.79807083  0.42747945     0.28700
H1258       H  0.38790991  0.69083364  0.57622258     0.28700
H1259       H  0.48913035  0.67985975  0.54531046     0.19300
H1260       H  0.41686627  0.77487837  0.46378142     0.19300
C1261       C  0.09975476  0.59890992  0.13560922    -0.06500
C1262       C  0.09717233  0.60720763  0.17613639    -0.17600
C1263       C  0.07665612  0.58432548  0.20330208     0.10700
C1264       C  0.04931359  0.55439298  0.19030742    -0.06400
C1265       C  0.04602682  0.55168938  0.14885163    -0.17700
C1266       C  0.06925343  0.57332971  0.12205952     0.10700
S1267       S  0.08872698  0.59757618  0.25361115    -0.32600
S1268       S  0.05755839  0.56810456  0.07064671    -0.32600
H1269       H  0.02741468  0.54052317  0.07339304     0.28700
H1270       H  0.12683618  0.61164999  0.24723709     0.28700
H1271       H  0.11134269  0.63279580  0.18788950     0.19300
H1272       H  0.02427945  0.53285278  0.13666509     0.19300
C1273       C  0.28051341  0.72758748  0.19473532    -0.06500
C1274       C  0.29998637  0.76394435  0.19219036    -0.17600
C1275       C  0.33953966  0.76738442  0.20190958     0.10700
C1276       C  0.36180349  0.73359764  0.20802787    -0.06400
C1277       C  0.34571633  0.69787424  0.19525792    -0.17700
C1278       C  0.30510945  0.69441402  0.18756333     0.10700
S1279       S  0.35976026  0.81555154  0.20578845    -0.32600
S1280       S  0.28632172  0.64671842  0.17543085    -0.32600
H1281       H  0.32256634  0.62876199  0.16707414     0.28700
H1282       H  0.39617358  0.80464307  0.18974974     0.28700
H1283       H  0.28408763  0.79084902  0.18784501     0.19300
H1284       H  0.36417925  0.67220135  0.19447436     0.19300
C1285       C  0.24184302  0.70682834  0.25598246    -0.06500
C1286       C  0.27915489  0.69892173  0.27358109    -0.17600
C1287       C  0.28661556  0.70557701  0.31351563     0.10700
C1288       C  0.25585854  0.71759310  0.33789550    -0.06400
C1289       C  0.21757119  0.71683619  0.32262643    -0.17700
C1290       C  0.20997894  0.71005675  0.28267390     0.10700
S1291       S  0.33634952  0.69976779  0.33102280    -0.32600
S1292       S  0.15948287  0.70960888  0.26672064    -0.32600
H1293       H  0.14254747  0.70528151  0.30382077     0.28700
H1294       H  0.32636275  0.68572782  0.36804204     0.28700
H1295       H  0.30442644  0.69113129  0.25715360     0.19300
H1296       H  0.19339494  0.72301790  0.34204511     0.19300
C1297       C  0.22607411  0.76972498  0.22572784    -0.06500
C1298       C  0.25032690  0.78821190  0.25516494    -0.17600
C1299       C  0.25372562  0.82839150  0.26046017     0.10700
C1300       C  0.23363272  0.85322905  0.23507855    -0.06400
C1301       C  0.20429508  0.83622857  0.21073335    -0.17700
C1302       C  0.19851630  0.79543502  0.20757209     0.10700
S1303       S  0.28609792  0.84531300  0.29903967    -0.32600
S1304       S  0.15447349  0.78121664  0.18158273    -0.32600
H1305       H  0.14934184  0.74541555  0.19927909     0.28700
H1306       H  0.25918904  0.87328991  0.31334744     0.28700
H1307       H  0.27109418  0.77174138  0.27198464     0.19300
H1308       H  0.18525639  0.85497485  0.19378591     0.19300
C1309       C  0.15999834  0.64833930  0.13623740    -0.06500
C1310       C  0.17084950  0.68656210  0.12496892    -0.17600
C1311       C  0.19871098  0.70983730  0.14592146     0.10700
C1312       C  0.21022011  0.70039199  0.18519271    -0.06400
C1313       C  0.20014530  0.66169989  0.19563269    -0.17700
C1314       C  0.18096294  0.63497024  0.16982434     0.10700
S1315       S  0.22043785  0.74772100  0.11713059    -0.32600
S1316       S  0.18527864  0.58363199  0.18022786    -0.32600
H1317       H  0.21323333  0.58663942  0.21058515     0.28700
H1318       H  0.23621602  0.77047969  0.14699987     0.28700
H1319       H  0.16120621  0.69707000  0.09682266     0.19300
H1320       H  0.21124228  0.65013309  0.22270087     0.19300
C1321       C  0.37052384  0.51932562  0.99402662    -0.06500
C1322       C  0.35425452  0.54739503  0.96931361    -0.17600
C1323       C  0.31628971  0.56207839  0.97506910     0.10700
C1324       C  0.29278043  0.54619677  0.00538573    -0.06400
C1325       C  0.31465620  0.53035576  0.03685772    -0.17700
C1326       C  0.35137321  0.51299857  0.02994573     0.10700
S1327       S  0.30526923  0.60592348  0.94902943    -0.32600
S1328       S  0.37073760  0.48170263  0.06714610    -0.32600
H1329       H  0.36855497  0.44828033  0.04276920     0.28700
H1330       H  0.32709797  0.59651788  0.91530824     0.28700
H1331       H  0.37120781  0.55791128  0.94503226     0.19300
H1332       H  0.29962620  0.52304088  0.06356111     0.19300
C1333       C  0.22418742  0.53528333  0.96346798    -0.06500
C1334       C  0.20311785  0.50228534  0.94954928    -0.17600
C1335       C  0.20804071  0.48917819  0.91072614     0.10700
C1336       C  0.22868261  0.51323842  0.88469262    -0.06400
C1337       C  0.23414338  0.55252060  0.89587312    -0.17700
C1338       C  0.22882559  0.56429646  0.93512171     0.10700
S1339       S  0.19398356  0.43981286  0.89769804    -0.32600
S1340       S  0.21366747  0.61407513  0.94389968    -0.32600
H1341       H  0.19714265  0.60703679  0.98015914     0.28700
H1342       H  0.17370628  0.43168058  0.93229444     0.28700
H1343       H  0.19076892  0.48249310  0.97039841     0.19300
H1344       H  0.24220460  0.57377670  0.87430776     0.19300
C1345       C  0.22245174  0.55246141  0.03568070    -0.06500
C1346       C  0.18829196  0.53415849  0.04963894    -0.17600
C1347       C  0.16268862  0.55145318  0.07786944     0.10700
C1348       C  0.16307639  0.59292558  0.08579956    -0.06400
C1349       C  0.19574066  0.61168890  0.06893541    -0.17700
C1350       C  0.22628971  0.59239636  0.04832185     0.10700
S1351       S  0.13334979  0.51615693  0.10193513    -0.32600
S1352       S  0.26756645  0.62279291  0.03694480    -0.32600
H1353       H  0.26295496  0.64991734  0.06801510     0.28700
H1354       H  0.13954297  0.53184692  0.13948216     0.28700
H1355       H  0.18177451  0.50484669  0.03960666     0.19300
H1356       H  0.19782459  0.64287737  0.07128342     0.19300
C1357       C  0.26388797  0.40187581  0.00894506    -0.06500
C1358       C  0.27766306  0.42200859  0.97746339    -0.17600
C1359       C  0.27631056  0.46237739  0.97599813     0.10700
C1360       C  0.25648292  0.48534179  0.00627863    -0.06400
C1361       C  0.24642056  0.46430058  0.04020263    -0.17700
C1362       C  0.24945273  0.42318230  0.04167514     0.10700
S1363       S  0.30332848  0.47812966  0.93381542    -0.32600
S1364       S  0.23405766  0.39997815  0.08592921    -0.32600
H1365       H  0.22501319  0.36352579  0.06892737     0.28700
H1366       H  0.28861644  0.51489247  0.92988004     0.28700
H1367       H  0.29080023  0.40549067  0.95344896     0.19300
H1368       H  0.23687168  0.47958513  0.06634237     0.19300
C1369       C  0.03371709  0.85123409  0.99309777    -0.06500
C1370       C  0.00558277  0.83011181  0.97288892    -0.17600
C1371       C  0.00252189  0.79019764  0.97631620     0.10700
C1372       C  0.02954911  0.76860173  0.00096875    -0.06400
C1373       C  0.06009080  0.78989750  0.01886910    -0.17700
C1374       C  0.06264544  0.83075389  0.01520520     0.10700
S1375       S  0.95943254  0.77078472  0.95165213    -0.32600
S1376       S  0.10372229  0.85554324  0.03813387    -0.32600
H1377       H  0.11964373  0.82331543  0.05770683     0.28700
H1378       H  0.96052230  0.79538127  0.91911096     0.28700
H1379       H  0.98352289  0.84539529  0.95599737     0.19300
H1380       H  0.08212441  0.77460770  0.03557713     0.19300
C1381       C  0.02651998  0.70926415  0.96180144    -0.06500
C1382       C  0.99476214  0.69090133  0.94167876    -0.17600
C1383       C  0.98704050  0.69738820  0.90187070     0.10700
C1384       C  0.01211838  0.72169172  0.88082692    -0.06400
C1385       C  0.04824310  0.73170667  0.89785833    -0.17700
C1386       C  0.05670474  0.72390571  0.93721222     0.10700
S1387       S  0.94353322  0.67518098  0.88087348    -0.32600
S1388       S  0.10504736  0.73588013  0.95602806    -0.32600
H1389       H  0.11963373  0.75317997  0.92210865     0.28700
H1390       H  0.94148840  0.69583912  0.84585939     0.28700
H1391       H  0.97307657  0.67432624  0.95612975     0.19300
H1392       H  0.07012639  0.74538223  0.87991110     0.19300
C1393       C  0.10688361  0.64774809  0.07966466    -0.06500
C1394       C  0.08460769  0.67893883  0.09630591    -0.17600
C1395       C  0.06100503  0.70519179  0.07411442     0.10700
C1396       C  0.05642310  0.70039093  0.03262289    -0.06400
C1397       C  0.07793698  0.66866824  0.01623322    -0.17700
C1398       C  0.10273451  0.64340650  0.03783969     0.10700
S1399       S  0.03672365  0.74422789  0.10061562    -0.32600
S1400       S  0.12280923  0.60304878  0.00956496    -0.32600
H1401       H  0.12116117  0.62011207  0.97242973     0.28700
H1402       H  0.03967623  0.72802991  0.13807352     0.28700
H1403       H  0.08632610  0.68328320  0.12771234     0.19300
H1404       H  0.07395595  0.66149041  0.98568106     0.19300
C1405       C  0.11761893  0.13119702  0.59024510    -0.06500
C1406       C  0.10273565  0.11779235  0.55350102    -0.17600
C1407       C  0.07595336  0.13906271  0.52945058     0.10700
C1408       C  0.06546788  0.17899845  0.53830830    -0.06400
C1409       C  0.08144672  0.19272296  0.57454886    -0.17700
C1410       C  0.10222890  0.16891070  0.60148816     0.10700
S1411       S  0.05618355  0.11203829  0.48814743    -0.32600
S1412       S  0.10288281  0.18835270  0.65085284    -0.32600
H1413       H  0.09288637  0.15280355  0.66780444     0.28700
H1414       H  0.06123986  0.07443112  0.50326503     0.28700
H1415       H  0.11074205  0.08941346  0.54294445     0.19300
H1416       H  0.07623750  0.22242664  0.58394758     0.19300
C1417       C  0.29470082  0.00826441  0.51895435    -0.06500
C1418       C  0.31564187  0.03663325  0.49748425    -0.17600
C1419       C  0.35453634  0.03013582  0.48597977     0.10700
C1420       C  0.37532045  0.99766586  0.50036708    -0.06400
C1421       C  0.35829865  0.97707996  0.53110196    -0.17700
C1422       C  0.31919589  0.98432696  0.54254817     0.10700
S1423       S  0.37527438  0.06319997  0.45128017    -0.32600
S1424       S  0.31029893  0.97851969  0.59401423    -0.32600
H1425       H  0.27862070  0.00488326  0.59568548     0.28700
H1426       H  0.40041209  0.03576161  0.43325666     0.28700
H1427       H  0.29978039  0.06027146  0.48378172     0.19300
H1428       H  0.37664642  0.95819016  0.54867176     0.19300
C1429       C  0.25316455  0.01296162  0.37774048    -0.06500
C1430       C  0.27924763  0.98850645  0.39636283    -0.17600
C1431       C  0.27918915  0.98394712  0.43640361     0.10700
C1432       C  0.25220963  0.00644905  0.46102954    -0.06400
C1433       C  0.22920532  0.03492651  0.44227442    -0.17700
C1434       C  0.22889531  0.03797228  0.40106900     0.10700
S1435       S  0.31457035  0.94631692  0.44969453    -0.32600
S1436       S  0.19689725  0.07434177  0.38052082    -0.32600
H1437       H  0.22371389  0.08571665  0.35188024     0.28700
H1438       H  0.30392046  0.93628849  0.48704226     0.28700
H1439       H  0.29883124  0.97029389  0.37898117     0.19300
H1440       H  0.21005804  0.05366916  0.45942911     0.19300
C1441       C  0.23747118  0.95560192  0.50846236    -0.06500
C1442       C  0.24585090  0.93425849  0.54211574    -0.17600
C1443       C  0.25640583  0.89466398  0.53926998     0.10700
C1444       C  0.25407735  0.87506440  0.50246742    -0.06400
C1445       C  0.23466370  0.89350594  0.47202107    -0.17700
C1446       C  0.22337321  0.93243584  0.47544124     0.10700
S1447       S  0.27380562  0.87137657  0.58301092    -0.32600
S1448       S  0.19069138  0.94807059  0.43642349    -0.32600
H1449       H  0.17702109  0.98260477  0.45382721     0.28700
H1450       H  0.29983085  0.84586447  0.56354466     0.28700
H1451       H  0.24563856  0.94873311  0.57021582     0.19300
H1452       H  0.22675288  0.87693364  0.44582046     0.19300
C1453       C  0.17503190  0.07689004  0.58977731    -0.06500
C1454       C  0.15931613  0.04397098  0.56951823    -0.17600
C1455       C  0.18082772  0.01882591  0.54350146     0.10700
C1456       C  0.22067642  0.02730796  0.53234800    -0.06400
C1457       C  0.23625567  0.06014743  0.55281271    -0.17700
C1458       C  0.21681973  0.08063638  0.58364251     0.10700
S1459       S  0.15432403  0.97617073  0.52698375    -0.32600
S1460       S  0.25185376  0.10339450  0.61655268    -0.32600
H1461       H  0.23564795  0.08915962  0.65094497     0.28700
H1462       H  0.12859972  0.97379926  0.55887871     0.28700
H1463       H  0.12905307  0.03676001  0.57501360     0.19300
H1464       H  0.26631011  0.06823486  0.54810659     0.19300
C1465       C  0.75189590  0.46834799  0.97428077    -0.06500
C1466       C  0.73649564  0.50159320  0.99544221    -0.17600
C1467       C  0.69699759  0.50815768  0.00297676     0.10700
C1468       C  0.66942664  0.48115155  0.98952009    -0.06400
C1469       C  0.68351211  0.44694348  0.96993711    -0.17700
C1470       C  0.72388754  0.44003637  0.96218598     0.10700
S1471       S  0.68380698  0.55377063  0.02635920    -0.32600
S1472       S  0.73740841  0.39540544  0.93687832    -0.32600
H1473       H  0.70036877  0.37759002  0.93712199     0.28700
H1474       H  0.66555012  0.53556610  0.05793906     0.28700
H1475       H  0.75583919  0.52479600  0.00477119     0.19300
H1476       H  0.66236302  0.42560400  0.95974931     0.19300
C1477       C  0.81050308  0.47005153  0.01271014    -0.06500
C1478       C  0.82169849  0.50473837  0.03314768    -0.17600
C1479       C  0.80925017  0.51332233  0.07138261     0.10700
C1480       C  0.78617876  0.48617507  0.09146879    -0.06400
C1481       C  0.78355733  0.44835441  0.07504077    -0.17700
C1482       C  0.79705473  0.43949867  0.03710759     0.10700
S1483       S  0.82291185  0.56023229  0.09162393    -0.32600
S1484       S  0.79202695  0.38998298  0.01896330    -0.32600
H1485       H  0.78492262  0.37265398  0.05523208     0.28700
H1486       H  0.83975978  0.54423483  0.12553489     0.28700
H1487       H  0.83765368  0.52748036  0.01994690     0.19300
H1488       H  0.76969127  0.42560182  0.09144285     0.19300
C1489       C  0.97239090  0.45419744  0.70646324    -0.06500
C1490       C  0.95045574  0.48373034  0.68702714    -0.17600
C1491       C  0.95476695  0.49058315  0.64668167     0.10700
C1492       C  0.97985982  0.46637409  0.62436512    -0.06400
C1493       C  0.99210127  0.43132671  0.64072679    -0.17700
C1494       C  0.98707171  0.42378894  0.68053289     0.10700
S1495       S  0.92964153  0.53216424  0.62643850    -0.32600
S1496       S  0.00461483  0.37603736  0.69476798    -0.32600
H1497       H  0.99623263  0.37707047  0.73450231     0.28700
H1498       H  0.92964084  0.51942952  0.58713617     0.28700
H1499       H  0.93111503  0.50328286  0.70213542     0.19300
H1500       H  0.00676985  0.40976401  0.62232501     0.19300
C1501       C  0.98930544  0.50207554  0.76750438    -0.06500
C1502       C  0.95531047  0.52502264  0.76485626    -0.17600
C1503       C  0.95850252  0.56485682  0.75609825     0.10700
C1504       C  0.99616482  0.58213045  0.75607951    -0.06400
C1505       C  0.02692059  0.56211205  0.77372032    -0.17700
C1506       C  0.02380330  0.52280309  0.78153002     0.10700
S1507       S  0.91484821  0.59274029  0.74534687    -0.32600
S1508       S  0.06706867  0.50372104  0.80640625    -0.32600
H1509       H  0.05309056  0.46755544  0.81760303     0.28700
H1510       H  0.88775941  0.56299679  0.75259573     0.28700
H1511       H  0.92699471  0.51093076  0.76435305     0.19300
H1512       H  0.05461044  0.57654708  0.77956511     0.19300
C1513       C  0.03404369  0.45221434  0.74131712    -0.06500
C1514       C  0.05668629  0.42282341  0.75889989    -0.17600
C1515       C  0.09773738  0.42116234  0.75373700     0.10700
C1516       C  0.11688551  0.44974654  0.73075423    -0.06400
C1517       C  0.09409184  0.47421405  0.70844667    -0.17700
C1518       C  0.05404668  0.47691399  0.71361821     0.10700
S1519       S  0.12354563  0.38216911  0.77764029    -0.32600
S1520       S  0.03277249  0.51814210  0.68844247    -0.32600
H1521       H  0.05571499  0.51462278  0.65443399     0.28700
H1522       H  0.14959973  0.37559457  0.74641824     0.28700
H1523       H  0.04292082  0.40264523  0.77848792     0.19300
H1524       H  0.10821564  0.49493244  0.68964828     0.19300
C1525       C  0.92167357  0.33108703  0.88717788    -0.06500
C1526       C  0.96287016  0.33247913  0.88208341    -0.17600
C1527       C  0.99055959  0.31223491  0.90560173     0.10700
C1528       C  0.97805889  0.28788284  0.93703112    -0.06400
C1529       C  0.93677229  0.28669269  0.94219102    -0.17700
C1530       C  0.90923198  0.30666997  0.91822237     0.10700
S1531       S  0.04105450  0.31830000  0.89124442    -0.32600
S1532       S  0.85781144  0.30010425  0.92865269    -0.32600
H1533       H  0.86271167  0.28889099  0.96781468     0.28700
H1534       H  0.03682144  0.35500991  0.87387640     0.28700
H1535       H  0.97436299  0.34764891  0.85742777     0.19300
H1536       H  0.92548833  0.26884662  0.96520038     0.19300
C1537       C  0.86650726  0.38524202  0.88760696    -0.06500
C1538       C  0.87817978  0.39289058  0.92698674    -0.17600
C1539       C  0.85819670  0.41849797  0.95326828     0.10700
C1540       C  0.82179365  0.43703549  0.94224460    -0.06400
C1541       C  0.81208450  0.43211077  0.90198623    -0.17700
C1542       C  0.83446800  0.40919366  0.87485639     0.10700
S1543       S  0.88382292  0.42784114  0.99918052    -0.32600
S1544       S  0.82180851  0.41305053  0.82370154    -0.32600
H1545       H  0.79446862  0.44373843  0.82706583     0.28700
H1546       H  0.92213139  0.42006422  0.98598945     0.28700
H1547       H  0.90498583  0.38016205  0.93774945     0.19300
H1548       H  0.78693723  0.44778479  0.89102785     0.19300
C1549       C  0.91424321  0.38222744  0.82938516    -0.06500
C1550       C  0.93989838  0.41073416  0.84504278    -0.17600
C1551       C  0.96340373  0.43573575  0.82228426     0.10700
C1552       C  0.96499884  0.43198903  0.78005135    -0.06400
C1553       C  0.93574157  0.40636705  0.76467382    -0.17700
C1554       C  0.91075713  0.38278427  0.78734491     0.10700
S1555       S  0.98556289  0.47454569  0.85072905    -0.32600
S1556       S  0.87166347  0.35980788  0.75930549    -0.32600
H1557       H  0.89343100  0.35235310  0.72510062     0.28700
H1558       H  0.95622859  0.47775442  0.87945167     0.28700
H1559       H  0.94171622  0.41357136  0.87661646     0.19300
H1560       H  0.93046620  0.40515574  0.73361065     0.19300
C1561       C  0.86553411  0.32280053  0.83801602    -0.06500
C1562       C  0.82417027  0.32222241  0.84066705    -0.17600
C1563       C  0.79952697  0.29978370  0.81525719     0.10700
C1564       C  0.81604066  0.27107276  0.78864757    -0.06400
C1565       C  0.85746935  0.26749356  0.79105504    -0.17700
C1566       C  0.88188929  0.29226540  0.81406311     0.10700
S1567       S  0.74807060  0.31205651  0.81876238    -0.32600
S1568       S  0.93414177  0.28665524  0.80730533    -0.32600
H1569       H  0.93357209  0.24770639  0.79374425     0.28700
H1570       H  0.75234289  0.35039781  0.83345598     0.28700
H1571       H  0.81010161  0.34054580  0.86228704     0.19300
H1572       H  0.87157798  0.24570133  0.77280642     0.19300
C1573       C  0.78289224  0.58587765  0.95232551    -0.06500
C1574       C  0.82229715  0.57419464  0.95857629    -0.17600
C1575       C  0.83366124  0.53520610  0.95156533     0.10700
C1576       C  0.80383825  0.50811009  0.94421762    -0.06400
C1577       C  0.77198955  0.52287588  0.92172397    -0.17700
C1578       C  0.75940731  0.56146258  0.92815296     0.10700
S1579       S  0.88408761  0.51983920  0.95619528    -0.32600
S1580       S  0.71191261  0.57644237  0.90976276    -0.32600
H1581       H  0.70391542  0.54256496  0.88739643     0.28700
H1582       H  0.89962043  0.55763606  0.95999561     0.28700
H1583       H  0.84330935  0.59452579  0.97105076     0.19300
H1584       H  0.75181801  0.50278520  0.90762725     0.19300
C1585       C  0.60957323  0.75367340  0.98839066    -0.06500
C1586       C  0.59508654  0.78581925  0.01017553    -0.17600
C1587       C  0.55810532  0.80208646  0.00218116     0.10700
C1588       C  0.53246829  0.78231098  0.97580045    -0.06400
C1589       C  0.55196455  0.76014613  0.94629532    -0.17700
C1590       C  0.58886135  0.74321525  0.95351708     0.10700
S1591       S  0.55385773  0.85299125  0.01393856    -0.32600
S1592       S  0.60762286  0.70821691  0.91793935    -0.32600
H1593       H  0.57307343  0.70369275  0.89561759     0.28700
H1594       H  0.53199199  0.86136269  0.98000533     0.28700
H1595       H  0.61337335  0.79986061  0.03225114     0.19300
H1596       H  0.53514849  0.75000550  0.92118728     0.19300
C1597       C  0.90204514  0.72429575  0.01886162    -0.06500
C1598       C  0.92065213  0.68744002  0.01795202    -0.17600
C1599       C  0.96121773  0.68412701  0.02427736     0.10700
C1600       C  0.98339875  0.71868761  0.02599479    -0.06400
C1601       C  0.96287185  0.75192572  0.04124189    -0.17700
C1602       C  0.92250669  0.75584266  0.03561418     0.10700
S1603       S  0.98300072  0.63622437  0.02434117    -0.32600
S1604       S  0.90026604  0.80259410  0.04678042    -0.32600
H1605       H  0.86176145  0.78928629  0.05154445     0.28700
H1606       H  0.00632717  0.64438750  0.05751002     0.28700
H1607       H  0.90389272  0.66143569  0.01103376     0.19300
H1608       H  0.97835658  0.77756523  0.05163644     0.19300
C1609       C  0.77817092  0.71878510  0.14769516    -0.06500
C1610       C  0.75153992  0.70146194  0.17151004    -0.17600
C1611       C  0.74993465  0.71038371  0.21113155     0.10700
C1612       C  0.77838510  0.73692243  0.22941878    -0.06400
C1613       C  0.80968725  0.74810064  0.20529647    -0.17700
C1614       C  0.80882067  0.74105757  0.16453309     0.10700
S1615       S  0.70774973  0.68628908  0.23132162    -0.32600
S1616       S  0.84660195  0.76254977  0.13549920    -0.32600
H1617       H  0.84323642  0.73647739  0.10349389     0.28700
H1618       H  0.69910287  0.71074609  0.26197000     0.28700
H1619       H  0.72911719  0.68315340  0.15800668     0.19300
H1620       H  0.83444249  0.76353290  0.21758944     0.19300
C1621       C  0.56139829  0.27004315  0.01960997    -0.06500
C1622       C  0.54166942  0.29371087  0.04800143    -0.17600
C1623       C  0.53102347  0.33217189  0.04017605     0.10700
C1624       C  0.54357348  0.34919480  0.00501193    -0.06400
C1625       C  0.57361386  0.32984467  0.98419249    -0.17700
C1626       C  0.58436959  0.29119884  0.99277558     0.10700
S1627       S  0.50053493  0.35677954  0.07576828    -0.32600
S1628       S  0.63452939  0.27766354  0.98355914    -0.32600
H1629       H  0.64499255  0.31035687  0.96172216     0.28700
H1630       H  0.52178413  0.39170936  0.07430659     0.28700
H1631       H  0.52881593  0.28017063  0.07328192     0.19300
H1632       H  0.58900804  0.34498703  0.96146610     0.19300
C1633       C  0.41887129  0.24795616  0.02553506    -0.06500
C1634       C  0.44104887  0.26736895  0.99857256    -0.17600
C1635       C  0.48042060  0.25942273  0.99354521     0.10700
C1636       C  0.50092041  0.23284806  0.01929302    -0.06400
C1637       C  0.47849762  0.21516883  0.04866882    -0.17700
C1638       C  0.43760789  0.22187142  0.05143783     0.10700
S1639       S  0.50176042  0.28258534  0.95131929    -0.32600
S1640       S  0.41076046  0.19480616  0.08684366    -0.32600
H1641       H  0.38340102  0.22458060  0.09480868     0.28700
H1642       H  0.47235087  0.31027922  0.94337058     0.28700
H1643       H  0.42615361  0.28685499  0.97864945     0.19300
H1644       H  0.49233261  0.19555085  0.06903787     0.19300
C1645       C  0.61053926  0.13959283  0.09361252    -0.06500
C1646       C  0.61405219  0.18042534  0.09902866    -0.17600
C1647       C  0.59675234  0.20861557  0.07460195     0.10700
C1648       C  0.56752337  0.19797992  0.04570125    -0.06400
C1649       C  0.55920610  0.15739333  0.04401593    -0.17700
C1650       C  0.57992854  0.12873897  0.06642550     0.10700
S1651       S  0.61540893  0.25716406  0.08406283    -0.32600
S1652       S  0.56627172  0.07834770  0.05893451    -0.32600
H1653       H  0.53219656  0.08474836  0.03647282     0.28700
H1654       H  0.65420394  0.24563714  0.09260100     0.28700
H1655       H  0.63084430  0.19190396  0.12328715     0.19300
H1656       H  0.53696668  0.14763868  0.02346590     0.19300
C1657       C  0.48885903  0.49952883  0.69663179    -0.06500
C1658       C  0.46900381  0.53050755  0.71654913    -0.17600
C1659       C  0.43021446  0.52653644  0.72895332     0.10700
C1660       C  0.40917924  0.49247228  0.71828545    -0.06400
C1661       C  0.42520665  0.46872542  0.68820208    -0.17700
C1662       C  0.46401414  0.47362945  0.67545799     0.10700
S1663       S  0.41021824  0.56574246  0.75847160    -0.32600
S1664       S  0.47364457  0.46115525  0.62515961    -0.32600
H1665       H  0.44242574  0.43493519  0.61965486     0.28700
H1666       H  0.37473918  0.56707820  0.73729830     0.28700
H1667       H  0.48563710  0.55513901  0.72781559     0.19300
H1668       H  0.40714145  0.44687141  0.67383516     0.19300
C1669       C  0.53174482  0.49881173  0.75308624    -0.06500
C1670       C  0.55259563  0.52801135  0.77395675    -0.17600
C1671       C  0.55254539  0.52944661  0.81521747     0.10700
C1672       C  0.53061040  0.50171054  0.83578873    -0.06400
C1673       C  0.50802326  0.47487274  0.81589393    -0.17700
C1674       C  0.50768699  0.47277754  0.77569224     0.10700
S1675       S  0.58055782  0.56725882  0.83962218    -0.32600
S1676       S  0.47681697  0.43417402  0.75594927    -0.32600
H1677       H  0.48045157  0.40840202  0.78741278     0.28700
H1678       H  0.58293368  0.54997872  0.87654144     0.28700
H1679       H  0.56930359  0.54946644  0.75852934     0.19300
H1680       H  0.49002807  0.45506986  0.83239107     0.19300
C1681       C  0.55932003  0.52495028  0.68389565    -0.06500
C1682       C  0.54086263  0.54987479  0.65621293    -0.17600
C1683       C  0.56035383  0.57848039  0.63390948     0.10700
C1684       C  0.60208044  0.58348762  0.63678731    -0.06400
C1685       C  0.62064849  0.55837520  0.66426215    -0.17700
C1686       C  0.60076442  0.53021882  0.68715146     0.10700
S1687       S  0.52893775  0.60400035  0.59996843    -0.32600
S1688       S  0.63017232  0.50078722  0.71944391    -0.32600
H1689       H  0.66623385  0.51966936  0.71442982     0.28700
H1690       H  0.49541720  0.60482230  0.62381224     0.28700
H1691       H  0.51002673  0.54677433  0.65009233     0.19300
H1692       H  0.65205741  0.56069389  0.66767728     0.19300
C1693       C  0.46688134  0.24742250  0.60622708    -0.06500
C1694       C  0.47835022  0.28298550  0.59058780    -0.17600
C1695       C  0.47047059  0.29124379  0.55137042     0.10700
C1696       C  0.45763604  0.26038493  0.52582783    -0.06400
C1697       C  0.43624097  0.23064408  0.54423213    -0.17700
C1698       C  0.44020394  0.22423621  0.58444710     0.10700
S1699       S  0.48386929  0.33882679  0.53465160    -0.32600
S1700       S  0.41670804  0.18192112  0.60389972    -0.32600
H1701       H  0.40084361  0.20259627  0.63608287     0.28700
H1702       H  0.45060565  0.34296994  0.51063329     0.28700
H1703       H  0.49485123  0.30364079  0.60843914     0.19300
H1704       H  0.41942318  0.20970690  0.52808255     0.19300
C1705       C  0.66701078  0.22677238  0.74498887    -0.06500
C1706       C  0.68932064  0.22849176  0.71164465    -0.17600
C1707       C  0.72989548  0.23151821  0.71363581     0.10700
C1708       C  0.74974310  0.24087595  0.75028571    -0.06400
C1709       C  0.72671590  0.23539553  0.78389487    -0.17700
C1710       C  0.68593333  0.22989120  0.78186764     0.10700
S1711       S  0.75259627  0.21296497  0.66971834    -0.32600
S1712       S  0.65984972  0.22868577  0.82747634    -0.32600
H1713       H  0.62732597  0.25014120  0.81396628     0.28700
H1714       H  0.72436037  0.22660724  0.64290483     0.28700
H1715       H  0.67495042  0.22301429  0.68368623     0.19300
H1716       H  0.74029430  0.23573081  0.81243290     0.19300
C1717       C  0.55113222  0.44967253  0.70295326    -0.06500
C1718       C  0.56931086  0.43113107  0.73582221    -0.17600
C1719       C  0.56109380  0.39233514  0.74521224     0.10700
C1720       C  0.53743310  0.36983512  0.71972665    -0.06400
C1721       C  0.53175487  0.38437278  0.68149731    -0.17700
C1722       C  0.54188054  0.42320620  0.67231551     0.10700
S1723       S  0.57970618  0.37418909  0.79102660    -0.32600
S1724       S  0.56067056  0.43114960  0.62385017    -0.32600
H1725       H  0.57849401  0.46706518  0.63262564     0.28700
H1726       H  0.58629035  0.33576618  0.77752360     0.28700
H1727       H  0.58449382  0.44813125  0.75809363     0.19300
H1728       H  0.52239382  0.36466417  0.65817475     0.19300
C1729       C  0.53424847  0.21673251  0.89103814    -0.06500
C1730       C  0.57261104  0.22106512  0.90646744    -0.17600
C1731       C  0.58112917  0.21265973  0.94595805     0.10700
C1732       C  0.54977595  0.20732598  0.97185019    -0.06400
C1733       C  0.51602686  0.19016336  0.95368898    -0.17700
C1734       C  0.50732137  0.19624467  0.91399669     0.10700
S1735       S  0.62832073  0.19055853  0.95572448    -0.32600
S1736       S  0.46082480  0.17909232  0.89522108    -0.32600
H1737       H  0.47405018  0.16969226  0.85730989     0.28700
H1738       H  0.61786505  0.17264666  0.99067270     0.28700
H1739       H  0.59647862  0.22750063  0.88695651     0.19300
H1740       H  0.49355543  0.17701075  0.97129907     0.19300
C1741       C  0.49391201  0.07951495  0.74358423    -0.06500
C1742       C  0.50405980  0.05905156  0.77735376    -0.17600
C1743       C  0.49293718  0.02027201  0.78184332     0.10700
C1744       C  0.47564555  0.99969271  0.74932232    -0.06400
C1745       C  0.45629592  0.02344453  0.72165770    -0.17700
C1746       C  0.46540457  0.06300719  0.71814219     0.10700
S1747       S  0.50534274  0.99683551  0.82743911    -0.32600
S1748       S  0.44183431  0.09054448  0.67961880    -0.32600
H1749       H  0.41631770  0.06136516  0.66552007     0.28700
H1750       H  0.51636703  0.03062118  0.84858738     0.28700
H1751       H  0.52184526  0.07295007  0.79987511     0.19300
H1752       H  0.43687914  0.01207683  0.70012377     0.19300
C1753       C  0.24099758  0.19172428  0.77775135    -0.06500
C1754       C  0.21132284  0.21377703  0.79732509    -0.17600
C1755       C  0.22019254  0.23553676  0.83140501     0.10700
C1756       C  0.25726738  0.23056548  0.84999605    -0.06400
C1757       C  0.28093372  0.19942500  0.83658123    -0.17700
C1758       C  0.27064403  0.17743995  0.80316757     0.10700
S1759       S  0.18447505  0.27163274  0.84643909    -0.32600
S1760       S  0.27984652  0.12586192  0.80782637    -0.32600
H1761       H  0.25484062  0.11372264  0.77726504     0.28700
H1762       H  0.21231659  0.30158939  0.85057862     0.28700
H1763       H  0.18493541  0.22149886  0.78148807     0.19300
H1764       H  0.30495112  0.18912844  0.85467182     0.19300
C1765       C  0.21726778  0.17814937  0.70466407    -0.06500
C1766       C  0.21735643  0.18507092  0.66384093    -0.17600
C1767       C  0.19388477  0.16443719  0.63566860     0.10700
C1768       C  0.17049138  0.13156312  0.64667889    -0.06400
C1769       C  0.16813286  0.12680616  0.68767611    -0.17700
C1770       C  0.19010424  0.14824173  0.71598927     0.10700
S1771       S  0.19712253  0.18273520  0.58632154    -0.32600
S1772       S  0.17807885  0.13585549  0.76580360    -0.32600
H1773       H  0.17023905  0.09608255  0.75871575     0.28700
H1774       H  0.18621331  0.14931902  0.56518497     0.28700
H1775       H  0.23561842  0.20791153  0.65321653     0.19300
H1776       H  0.14704427  0.10698480  0.69906907     0.19300
C1777       C  0.24528542  0.24759317  0.73579968    -0.06500
C1778       C  0.27486980  0.26447355  0.76074116    -0.17600
C1779       C  0.27935254  0.30392497  0.76709348     0.10700
C1780       C  0.25406389  0.32928677  0.74823814    -0.06400
C1781       C  0.22311027  0.31444115  0.72497700    -0.17700
C1782       C  0.21741977  0.27398627  0.71952320     0.10700
S1783       S  0.31971193  0.31998139  0.79773146    -0.32600
S1784       S  0.17367357  0.26005599  0.69325036    -0.32600
H1785       H  0.16257624  0.23130375  0.71957248     0.28700
H1786       H  0.29985894  0.35184401  0.81492496     0.28700
H1787       H  0.29628562  0.24611108  0.77498993     0.19300
H1788       H  0.20297265  0.33464985  0.71121909     0.19300
C1789       C  0.29140456  0.19400191  0.71754805    -0.06500
C1790       C  0.31362868  0.16255081  0.73116082    -0.17600
C1791       C  0.35276976  0.16775974  0.74413136     0.10700
C1792       C  0.37177336  0.20423048  0.73897393    -0.06400
C1793       C  0.35326249  0.23043419  0.71384743    -0.17700
C1794       C  0.31475754  0.22384191  0.70002242     0.10700
S1795       S  0.37599258  0.12716010  0.76800283    -0.32600
S1796       S  0.29560139  0.25592775  0.66287453    -0.32600
H1797       H  0.33095289  0.27491926  0.65455901     0.28700
H1798       H  0.39395914  0.15018732  0.79744285     0.28700
H1799       H  0.29955556  0.13485435  0.73449998     0.19300
H1800       H  0.36936161  0.25557712  0.70418752     0.19300
C1801       C  0.03664657  0.99615507  0.75918931    -0.06500
C1802       C  0.05904318  0.02341908  0.78097586    -0.17600
C1803       C  0.05630278  0.02640597  0.82233316     0.10700
C1804       C  0.03106559  0.00116769  0.84338473    -0.06400
C1805       C  0.00922995  0.97425930  0.82218500    -0.17700
C1806       C  0.01100882  0.97124005  0.78163348     0.10700
S1807       S  0.08489234  0.06410009  0.84598113    -0.32600
S1808       S  0.97955250  0.93344780  0.76112085    -0.32600
H1809       H  0.95091460  0.93386198  0.79059144     0.28700
H1810       H  0.05410833  0.07694657  0.87028720     0.28700
H1811       H  0.07819472  0.04304062  0.76578498     0.19300
H1812       H  0.99090227  0.95419912  0.83784289     0.19300
C1813       C  0.99121755  0.00067261  0.70430141    -0.06500
C1814       C  0.96817026  0.97622064  0.67940845    -0.17600
C1815       C  0.92879259  0.96767237  0.68783619     0.10700
C1816       C  0.91133047  0.98486380  0.72135930    -0.06400
C1817       C  0.93018656  0.01736504  0.73828368    -0.17700
C1818       C  0.96848137  0.02722482  0.72813954     0.10700
S1819       S  0.90148576  0.93583660  0.65500202    -0.32600
S1820       S  0.98647380  0.07237611  0.74955161    -0.32600
H1821       H  0.02097616  0.07476292  0.72798407     0.28700
H1822       H  0.92846901  0.93539772  0.62405556     0.28700
H1823       H  0.97969643  0.96439976  0.65276614     0.19300
H1824       H  0.91537380  0.03512465  0.76020933     0.19300
C1825       C  0.05139246  0.94977618  0.70455359    -0.06500
C1826       C  0.03944799  0.92963817  0.67038432    -0.17600
C1827       C  0.02393745  0.89163770  0.67298040     0.10700
C1828       C  0.02832636  0.87092078  0.70838882    -0.06400
C1829       C  0.05452917  0.88607679  0.73619144    -0.17700
C1830       C  0.06794796  0.92451246  0.73399104     0.10700
S1831       S  0.99639859  0.87288489  0.63165293    -0.32600
S1832       S  0.10363931  0.93736134  0.77164115    -0.32600
H1833       H  0.11403491  0.97433329  0.75979031     0.28700
H1834       H  0.96891954  0.85267624  0.65401411     0.28700
H1835       H  0.03692310  0.94519109  0.64320629     0.19300
H1836       H  0.06384651  0.86816835  0.76044035     0.19300
C1837       C  0.11779430  0.07396528  0.64142212    -0.06500
C1838       C  0.07632149  0.07654989  0.63934895    -0.17600
C1839       C  0.04996471  0.05158671  0.65916951     0.10700
C1840       C  0.06361014  0.02318812  0.68730585    -0.06400
C1841       C  0.10517255  0.01941836  0.68778394    -0.17700
C1842       C  0.13153817  0.04294210  0.66577195     0.10700
S1843       S  0.99931754  0.05840905  0.64436987    -0.32600
S1844       S  0.18322778  0.03206135  0.66987635    -0.32600
H1845       H  0.18138993  0.01014915  0.70423347     0.28700
H1846       H  0.00668447  0.06896917  0.60546841     0.28700
H1847       H  0.06301986  0.09859152  0.62148118     0.19300
H1848       H  0.11774752  0.99579181  0.70362045     0.19300
C1849       C  0.71467957  0.75883214  0.70166940    -0.06500
C1850       C  0.68080263  0.77952168  0.71284340    -0.17600
C1851       C  0.68298314  0.82028157  0.71818096     0.10700
C1852       C  0.71786031  0.83933194  0.70715960    -0.06400
C1853       C  0.74149778  0.82004637  0.67973694    -0.17700
C1854       C  0.73991665  0.77966067  0.67583324     0.10700
S1855       S  0.64199460  0.84514453  0.74016627    -0.32600
S1856       S  0.77382313  0.75748762  0.64144056    -0.32600
H1857       H  0.78056626  0.79085215  0.61910541     0.28700
H1858       H  0.64768195  0.87988552  0.71968949     0.28700
H1859       H  0.65556558  0.76404378  0.72351166     0.19300
H1860       H  0.76467538  0.83564001  0.66531286     0.19300
C1861       C  0.77304722  0.72025142  0.72210614    -0.06500
C1862       C  0.79599182  0.69044364  0.70479261    -0.17600
C1863       C  0.83725950  0.69204707  0.70453021     0.10700
C1864       C  0.85750131  0.72285416  0.72470628    -0.06400
C1865       C  0.83526987  0.75154174  0.74302762    -0.17700
C1866       C  0.79447366  0.75145198  0.74172804     0.10700
S1867       S  0.86146403  0.65372082  0.67708812    -0.32600
S1868       S  0.77261347  0.79273359  0.76704041    -0.32600
H1869       H  0.80270899  0.81963344  0.76014675     0.28700
H1870       H  0.88061976  0.67989606  0.65245074     0.28700
H1871       H  0.78212240  0.66533550  0.69134332     0.19300
H1872       H  0.85011335  0.77474811  0.75898865     0.19300
C1873       C  0.71995389  0.71632999  0.76788838    -0.06500
C1874       C  0.70326705  0.74666491  0.79163270    -0.17600
C1875       C  0.71418717  0.75289131  0.83097809     0.10700
C1876       C  0.74068491  0.72734605  0.84913633    -0.06400
C1877       C  0.75095488  0.69300795  0.82876753    -0.17700
C1878       C  0.73958283  0.68640866  0.78950370     0.10700
S1879       S  0.69355854  0.79475783  0.85634190    -0.32600
S1880       S  0.75301677  0.63974040  0.76848890    -0.32600
H1881       H  0.71550685  0.63197753  0.75338544     0.28700
H1882       H  0.72658307  0.80252541  0.88000322     0.28700
H1883       H  0.68404834  0.76842396  0.78060678     0.19300
H1884       H  0.76723792  0.67055661  0.84394103     0.19300
C1885       C  0.70326442  0.68687771  0.69665703    -0.06500
C1886       C  0.71415859  0.67946408  0.65740202    -0.17600
C1887       C  0.69108573  0.65860557  0.62949433     0.10700
C1888       C  0.65652009  0.63815198  0.64066713    -0.06400
C1889       C  0.64462922  0.64613002  0.67978681    -0.17700
C1890       C  0.66580181  0.67074391  0.70664033     0.10700
S1891       S  0.70769400  0.65974839  0.57952267    -0.32600
S1892       S  0.64135719  0.68262203  0.75213992    -0.32600
H1893       H  0.61499555  0.65122844  0.75192023     0.28700
H1894       H  0.73321267  0.69168189  0.58330981     0.28700
H1895       H  0.74109090  0.69110700  0.64734693     0.19300
H1896       H  0.61667156  0.63513341  0.68906216     0.19300
C1897       C  0.79151255  0.02002947  0.02740043    -0.06500
C1898       C  0.81033033  0.05290783  0.01256466    -0.17600
C1899       C  0.85020210  0.05137822  0.00101901     0.10700
C1900       C  0.87286085  0.01739256  0.00835657    -0.06400
C1901       C  0.85746094  0.99104321  0.03496346    -0.17700
C1902       C  0.81798456  0.99373462  0.04692718     0.10700
S1903       S  0.87086503  0.09187558  0.97532132    -0.32600
S1904       S  0.80261277  0.96367640  0.08705575    -0.32600
H1905       H  0.83576654  0.93912590  0.08785395     0.28700
H1906       H  0.83784612  0.11649707  0.97780392     0.28700
H1907       H  0.79398467  0.07936334  0.00978573     0.19300
H1908       H  0.87648217  0.96863343  0.04663366     0.19300
C1909       C  0.73831973  0.01283486  0.96867536    -0.06500
C1910       C  0.71461636  0.98366140  0.95016757    -0.17600
C1911       C  0.72419115  0.96826096  0.91342180     0.10700
C1912       C  0.75293082  0.98707196  0.89104269    -0.06400
C1913       C  0.76636055  0.02372466  0.90477795    -0.17700
C1914       C  0.75717935  0.03801939  0.94225093     0.10700
S1915       S  0.70107530  0.92295132  0.89933149    -0.32600
S1916       S  0.75619600  0.09053698  0.94668818    -0.32600
H1917       H  0.73594098  0.09277716  0.98217754     0.28700
H1918       H  0.73678179  0.90432967  0.89001143     0.28700
H1919       H  0.69343850  0.96795092  0.96724283     0.19300
H1920       H  0.78213244  0.04269288  0.88542551     0.19300
C1921       C  0.74869533  0.87756397  0.01332156    -0.06500
C1922       C  0.77686337  0.89814789  0.99369017    -0.17600
C1923       C  0.77730065  0.93848843  0.99309430     0.10700
C1924       C  0.74953865  0.96165049  0.01626004    -0.06400
C1925       C  0.72136006  0.94039221  0.03710438    -0.17700
C1926       C  0.71995882  0.89908482  0.03493822     0.10700
S1927       S  0.81430030  0.95416091  0.95867213    -0.32600
S1928       S  0.67905423  0.87604441  0.05802136    -0.32600
H1929       H  0.67127824  0.85077757  0.02601831     0.28700
H1930       H  0.81256023  0.99403436  0.96166240     0.28700
H1931       H  0.79895662  0.88217630  0.97716109     0.19300
H1932       H  0.69887613  0.95586662  0.05336528     0.19300
C1933       C  0.71548519  0.03150945  0.03967686    -0.06500
C1934       C  0.71888453  0.03218102  0.08104035    -0.17600
C1935       C  0.69416881  0.05489046  0.10653775     0.10700
C1936       C  0.66560846  0.08199554  0.09161394    -0.06400
C1937       C  0.66282011  0.08192855  0.05044064    -0.17700
C1938       C  0.68341242  0.05554938  0.02529953     0.10700
S1939       S  0.70006645  0.04767707  0.15849041    -0.32600
S1940       S  0.66361246  0.05378263  0.97588407    -0.32600
H1941       H  0.62561932  0.06769671  0.98427575     0.28700
H1942       H  0.72127813  0.01244422  0.15607727     0.28700
H1943       H  0.74132923  0.01436045  0.09402210     0.19300
H1944       H  0.64347641  0.10251471  0.03674320     0.19300
loop_ 
_geom_bond_atom_site_label_1 
_geom_bond_atom_site_label_2 
_geom_bond_distance 
_geom_bond_site_symmetry_2 
_ccdc_geom_bond_type 
C1         C1897   1.606       .  S
C1         C1909   1.585   1_554  S
C1         C1924   1.592   1_545  S
C1         C1933   1.627       .  S
C2         C1849   1.573       .  S
C2         C1861   1.586       .  S
C2         C1873   1.598       .  S
C2         C1885   1.610       .  S
C3         C1801   1.589       .  S
C3         C1813   1.595   1_465  S
C3         C1825   1.599       .  S
C3         C1840   1.639   1_565  S
C4         C1753   1.594       .  S
C4         C1765   1.614       .  S
C4         C1777   1.584       .  S
C4         C1789   1.605       .  S
Zn5           O9   1.893       .  S
Zn5          O10   1.971       .  S
Zn5          O14   1.939       .  S
Zn5          O21   1.966       .  S
Zn6           O9   1.913       .  S
Zn6          O11   1.937       .  S
Zn6          O13   2.034       .  S
Zn6          O17   2.025       .  S
Zn7           O9   1.939       .  S
Zn7          O12   2.167       .  S
Zn7          O15   2.169       .  S
Zn7          O18   2.161       .  S
Zn8           O9   1.907       .  S
Zn8          O16   1.917       .  S
Zn8          O19   1.975       .  S
Zn8          O20   1.999       .  S
O10          C22   1.265       .  A
O11          C23   1.261       .  A
O12          C24   1.293       .  A
O13          C22   1.279       .  A
O14          C24   1.259       .  A
O15          C23   1.296       .  A
O16          C25   1.260       .  A
O17          C26   1.280       .  A
O18          C25   1.294       .  A
O19          C26   1.269       .  A
O20          C27   1.271       .  A
O21          C27   1.267       .  A
C22        C1693   1.478       .  S
C23        C1720   1.493       .  S
C24        C1792   1.501       .  S
C25        C1729   1.484       .  S
C26        C1705   1.475       .  S
C27        C1741   1.481       .  S
C28        C1657   1.590       .  S
C28        C1669   1.575       .  S
C28        C1681   1.620       .  S
C28        C1717   1.608       .  S
C29        C1621   1.588       .  S
C29        C1636   1.586       .  S
C29        C1648   1.612       .  S
C29        C1732   1.593   1_554  S
Zn30         O34   1.953       .  S
Zn30         O35   2.100       .  S
Zn30         O39   2.080       .  S
Zn30         O46   2.114       .  S
Zn31         O34   1.931   1_554  S
Zn31         O36   1.992       .  S
Zn31         O38   1.885       .  S
Zn31         O42   1.977   1_554  S
Zn32         O34   1.937   1_554  S
Zn32         O37   1.975       .  S
Zn32         O40   2.012       .  S
Zn32         O43   2.015       .  S
Zn33         O34   1.936       .  S
Zn33         O41   2.006       .  S
Zn33         O44   2.032       .  S
Zn33         O45   1.949       .  S
O35          C47   1.285   1_556  A
O36          C48   1.271       .  A
O37          C49   1.262       .  A
O38          C47   1.254       .  A
O39          C49   1.286   1_556  A
O40          C48   1.273       .  A
O41          C50   1.274       .  A
O42          C51   1.268       .  A
O43          C50   1.277   1_554  A
O44          C51   1.274       .  A
O45          C52   1.262       .  A
O46          C52   1.286       .  A
C47        C1597   1.465       .  S
C48        C1609   1.464       .  S
C49        C1921   1.498       .  S
C50        C1585   1.496       .  S
C51        C1573   1.489       .  S
C52        C1876   1.481       .  S
C53        C1525   1.616       .  S
C53        C1537   1.625       .  S
C53        C1549   1.614       .  S
C53        C1561   1.601       .  S
C54        C1489   1.607       .  S
C54        C1501   1.574       .  S
C54        C1513   1.572   1_655  S
C54        C1552   1.629       .  S
C55        C1465   1.602       .  S
C55        C1477   1.588   1_556  S
C55        C1540   1.609       .  S
C55        C1576   1.580       .  S
C56        C1417   1.608   1_565  S
C56        C1432   1.573   1_565  S
C56        C1441   1.578       .  S
C56        C1456   1.630   1_565  S
C57        C1405   1.634       .  S
C57        C1453   1.640       .  S
C57        C1768   1.614       .  S
C57        C1837   1.638       .  S
C58        C1372   1.579       .  S
C58        C1381   1.589   1_554  S
C58        C1396   1.610       .  S
C58        C1600   1.575   1_455  S
C59        C1324   1.586       .  S
C59        C1333   1.582   1_554  S
C59        C1345   1.604       .  S
C59        C1360   1.612       .  S
C60        C1273   1.588       .  S
C60        C1285   1.592       .  S
C60        C1297   1.612       .  S
C60        C1312   1.609       .  S
C61        C1261   1.627       .  S
C61        C1309   1.626       .  S
C61        C1348   1.622       .  S
C61        C1393   1.615       .  S
C62        C1213   1.574       .  S
C62        C1225   1.610       .  S
C62        C1240   1.601       .  S
C62        C1249   1.580       .  S
Zn63         O67   1.957       .  S
Zn63         O68   2.078       .  S
Zn63         O72   2.096       .  S
Zn63         O79   2.064       .  S
Zn64         O67   1.925       .  S
Zn64         O69   2.033       .  S
Zn64         O71   1.922       .  S
Zn64         O75   2.015       .  S
Zn65         O67   1.936       .  S
Zn65         O70   1.917       .  S
Zn65         O73   2.020       .  S
Zn65         O76   2.012       .  S
Zn66         O67   1.923       .  S
Zn66         O74   1.983       .  S
Zn66         O77   1.994       .  S
Zn66         O78   1.931       .  S
O68          C80   1.283       .  A
O69          C81   1.275       .  A
O70          C82   1.259       .  A
O71          C80   1.259       .  A
O72          C82   1.283       .  A
O73          C81   1.275       .  A
O74          C83   1.270       .  A
O75          C84   1.276       .  A
O76          C83   1.273       .  A
O77          C84   1.269       .  A
O78          C85   1.256       .  A
O79          C85   1.284       .  A
C80        C1444   1.465       .  S
C81        C1201   1.500       .  S
C82        C1288   1.476       .  S
C83        C1177   1.487       .  S
C84        C1189   1.468       .  S
C85        C1252   1.489       .  S
Zn86         O90   1.939       .  S
Zn86         O91   2.093       .  S
Zn86         O95   2.083       .  S
Zn86        O102   2.145       .  S
Zn87         O90   1.928       .  S
Zn87         O92   1.978       .  S
Zn87         O94   1.912       .  S
Zn87         O98   1.958       .  S
Zn88         O90   1.921       .  S
Zn88         O93   1.942       .  S
Zn88         O96   1.991       .  S
Zn88         O99   1.983       .  S
Zn89         O90   1.942       .  S
Zn89         O97   2.049       .  S
Zn89        O100   2.057       .  S
Zn89        O101   1.967       .  S
O91         C103   1.289       .  A
O92         C104   1.269       .  A
O93         C105   1.259       .  A
O94         C103   1.254       .  A
O95         C105   1.287       .  A
O96         C104   1.269       .  A
O97         C106   1.280       .  A
O98         C107   1.265       .  A
O99         C106   1.272       .  A
O100        C107   1.281       .  A
O101        C108   1.264       .  A
O102        C108   1.290       .  A
C103       C1516   1.489       .  S
C104       C1780   1.456       .  S
C105       C1153   1.493       .  S
C106       C1660   1.495       .  S
C107       C1336   1.482       .  S
C108       C1165   1.495       .  S
Zn109       O113   1.914   1_655  S
Zn109       O114   2.001       .  S
Zn109       O118   1.925       .  S
Zn109       O125   1.994       .  S
Zn110       O113   1.903       .  S
Zn110       O115   1.951       .  S
Zn110       O117   1.982       .  S
Zn110       O121   1.994       .  S
Zn111       O113   1.938   1_655  S
Zn111       O116   2.109       .  S
Zn111       O119   2.127       .  S
Zn111       O122   2.110       .  S
Zn112       O113   1.918       .  S
Zn112       O120   1.904       .  S
Zn112       O123   2.019       .  S
Zn112       O124   1.970       .  S
O114        C126   1.271   1_655  A
O115        C127   1.260       .  A
O116        C128   1.290       .  A
O117        C126   1.271       .  A
O118        C128   1.257       .  A
O119        C127   1.289   1_655  A
O120        C129   1.257       .  A
O121        C130   1.270       .  A
O122        C129   1.286   1_655  A
O123        C130   1.272       .  A
O124        C131   1.274       .  A
O125        C131   1.271   1_655  A
C126       C1132   1.485       .  S
C127       C1828   1.486       .  S
C128       C1864   1.498       .  S
C129       C1384   1.468       .  S
C130       C1141   1.490       .  S
C131       C1504   1.474   1_455  S
C132       C1117   1.629       .  S
C132       C1144   1.592       .  S
C132       C1168   1.614       .  S
C132       C1192   1.585       .  S
Zn133       O137   1.892       .  S
Zn133       O138   2.018       .  S
Zn133       O142   2.021       .  S
Zn133       O149   1.918       .  S
Zn134       O137   1.904       .  S
Zn134       O139   2.036       .  S
Zn134       O141   1.987       .  S
Zn134       O145   1.928       .  S
Zn135       O137   1.905       .  S
Zn135       O140   2.015       .  S
Zn135       O143   2.001       .  S
Zn135       O146   1.940       .  S
Zn136       O137   1.960       .  S
Zn136       O144   2.093       .  S
Zn136       O147   2.099       .  S
Zn136       O148   2.137       .  S
O138        C150   1.275       .  A
O139        C151   1.273       .  A
O140        C152   1.274       .  A
O141        C150   1.274       .  A
O142        C152   1.276       .  A
O143        C151   1.279       .  A
O144        C153   1.286       .  A
O145        C154   1.256       .  A
O146        C153   1.261       .  A
O147        C154   1.278       .  A
O148        C155   1.292       .  A
O149        C155   1.261       .  A
C150       C1069   1.484       .  S
C151       C1093   1.488       .  S
C152       C1081   1.494       .  S
C153       C1276   1.478       .  S
C154       C1108   1.487       .  S
C155       C1237   1.478       .  S
C156       C1033   1.636       .  S
C156       C1045   1.616       .  S
C156       C1057   1.607       .  S
C156       C1120   1.634       .  S
C157       C1009   1.578       .  S
C157       C1021   1.594       .  S
C157       C1060   1.611       .  S
C157       C1744   1.584       .  S
C158        C997   1.590       .  S
C158       C1048   1.616       .  S
C158       C1096   1.579   1_556  S
C158       C1588   1.594       .  S
C159        C949   1.570       .  S
C159        C961   1.606       .  S
C159        C973   1.607       .  S
C159        C985   1.576       .  S
Zn160       O164   1.913       .  S
Zn160       O165   1.937       .  S
Zn160       O169   1.963       .  S
Zn160       O176   1.999       .  S
Zn161       O164   1.950       .  S
Zn161       O166   2.139       .  S
Zn161       O168   2.132       .  S
Zn161       O172   2.122       .  S
Zn162       O164   1.917       .  S
Zn162       O167   2.011       .  S
Zn162       O170   1.954       .  S
Zn162       O173   2.007       .  S
Zn163       O164   1.933       .  S
Zn163       O171   2.036       .  S
Zn163       O174   1.929       .  S
Zn163       O175   2.019       .  S
O165        C177   1.261       .  A
O166        C178   1.292       .  A
O167        C179   1.273       .  A
O168        C177   1.286       .  A
O169        C179   1.269       .  A
O170        C178   1.264       .  A
O171        C180   1.277       .  A
O172        C181   1.287       .  A
O173        C180   1.274       .  A
O174        C181   1.260       .  A
O175        C182   1.277       .  A
O176        C182   1.268       .  A
C177        C964   1.487       .  S
C178        C925   1.507       .  S
C179        C913   1.454       .  S
C180       C1480   1.501       .  S
C181        C937   1.478       .  S
C182        C901   1.486       .  S
C183        C865   1.580       .  S
C183        C880   1.616       .  S
C183        C892   1.587       .  S
C183        C928   1.604       .  S
Zn184       O188   1.924       .  S
Zn184       O189   2.033       .  S
Zn184       O193   1.920       .  S
Zn184       O200   1.989       .  S
Zn185       O188   1.889   1_545  S
Zn185       O190   1.932       .  S
Zn185       O192   1.978   1_545  S
Zn185       O196   1.972   1_545  S
Zn186       O188   1.937   1_545  S
Zn186       O191   2.109   1_545  S
Zn186       O194   2.115       .  S
Zn186       O197   2.131   1_545  S
Zn187       O188   1.920       .  S
Zn187       O195   1.941       .  S
Zn187       O198   1.988       .  S
Zn187       O199   2.025       .  S
O189        C201   1.277       .  A
O190        C202   1.261       .  A
O191        C203   1.286       .  A
O192        C201   1.269       .  A
O193        C203   1.257       .  A
O194        C202   1.288       .  A
O195        C204   1.257       .  A
O196        C205   1.272       .  A
O197        C204   1.292       .  A
O198        C205   1.273       .  A
O199        C206   1.270       .  A
O200        C206   1.278       .  A
C201       C1816   1.492       .  S
C202        C853   1.482       .  S
C203        C841   1.474       .  S
C204       C1024   1.500       .  S
C205       C1912   1.482       .  S
C206       C1852   1.489       .  S
C207        C829   1.575       .  S
C207        C856   1.588       .  S
C207       C1564   1.606       .  S
C207       C1708   1.586       .  S
Zn208       O212   1.936       .  S
Zn208       O213   2.106       .  S
Zn208       O217   2.076       .  S
Zn208       O224   2.077       .  S
Zn209       O212   1.932       .  S
Zn209       O214   2.027       .  S
Zn209       O216   1.965       .  S
Zn209       O220   2.004       .  S
Zn210       O212   1.929       .  S
Zn210       O215   1.892       .  S
Zn210       O218   1.998       .  S
Zn210       O221   2.028       .  S
Zn211       O212   1.914       .  S
Zn211       O219   2.048       .  S
Zn211       O222   2.030       .  S
Zn211       O223   1.942       .  S
O213        C225   1.285       .  A
O214        C226   1.275       .  A
O215        C227   1.252       .  A
O216        C225   1.263       .  A
O217        C227   1.286       .  A
O218        C226   1.273       .  A
O219        C228   1.276       .  A
O220        C229   1.277       .  A
O221        C228   1.276       .  A
O222        C229   1.276       .  A
O223        C230   1.264       .  A
O224        C230   1.283       .  A
C225        C817   1.505       .  S
C226        C832   1.492       .  S
C227        C988   1.483       .  S
C228        C793   1.485       .  S
C229        C805   1.471       .  S
C230        C889   1.473       .  S
C231        C745   1.619       .  S
C231        C760   1.622       .  S
C231        C769   1.613       .  S
C231        C784   1.600       .  S
C232        C733   1.591       .  S
C232        C772   1.603       .  S
C232        C808   1.593   1_565  S
C232        C844   1.581       .  S
C233        C721   1.603       .  S
C233        C757   1.614       .  S
C233       C1129   1.573       .  S
C233       C1204   1.586   1_655  S
C234        C781   1.605       .  S
C234        C904   1.579       .  S
C234       C1072   1.582       .  S
C234       C1612   1.594       .  S
C235        C700   1.588       .  S
C235        C709   1.612       .  S
C235       C1156   1.590       .  S
C235       C1180   1.580       .  S
Zn236       O240   1.929       .  S
Zn236       O241   1.992       .  S
Zn236       O245   1.921       .  S
Zn236       O252   1.994       .  S
Zn237       O240   1.950   1_554  S
Zn237       O242   1.935       .  S
Zn237       O244   2.021       .  S
Zn237       O248   2.021       .  S
Zn238       O240   1.970   1_554  S
Zn238       O243   2.141       .  S
Zn238       O246   2.130       .  S
Zn238       O249   2.123       .  S
Zn239       O240   1.923       .  S
Zn239       O247   1.897       .  S
Zn239       O250   1.962       .  S
Zn239       O251   1.964       .  S
O241        C253   1.270       .  A
O242        C254   1.261       .  A
O243        C255   1.290   1_554  A
O244        C253   1.275   1_554  A
O245        C255   1.259       .  A
O246        C254   1.288       .  A
O247        C256   1.252       .  A
O248        C257   1.272   1_554  A
O249        C256   1.291   1_554  A
O250        C257   1.267       .  A
O251        C258   1.265       .  A
O252        C258   1.271       .  A
C253       C1624   1.490   1_556  S
C254        C685   1.482       .  S
C255       C1468   1.500       .  S
C256       C1000   1.495       .  S
C257       C1321   1.486       .  S
C258       C1672   1.449       .  S
C259        C673   1.632       .  S
C259        C688   1.625       .  S
C259        C916   1.583       .  S
C259       C1084   1.598       .  S
C260        C649   1.614       .  S
C260        C661   1.613       .  S
C260        C676   1.624       .  S
C260        C712   1.632       .  S
C261        C640   1.584       .  S
C261        C652   1.607       .  S
C261        C796   1.618       .  S
C261       C1696   1.572       .  S
Zn262       O266   1.923   1_545  S
Zn262       O267   2.029       .  S
Zn262       O271   2.044       .  S
Zn262       O278   1.922       .  S
Zn263       O266   1.885   1_545  S
Zn263       O268   1.998       .  S
Zn263       O270   1.982       .  S
Zn263       O274   1.934       .  S
Zn264       O266   1.911       .  S
Zn264       O269   1.965       .  S
Zn264       O272   1.997       .  S
Zn264       O275   1.962       .  S
Zn265       O266   1.932       .  S
Zn265       O273   2.078       .  S
Zn265       O276   2.093       .  S
Zn265       O277   2.113       .  S
O267        C279   1.280       .  A
O268        C280   1.270   1_545  A
O269        C281   1.267       .  A
O270        C279   1.271       .  A
O271        C281   1.279   1_545  A
O272        C280   1.273       .  A
O273        C282   1.284       .  A
O274        C283   1.264   1_545  A
O275        C282   1.262       .  A
O276        C283   1.287       .  A
O277        C284   1.285       .  A
O278        C284   1.259   1_545  A
C279        C637   1.479       .  S
C280        C736   1.491       .  S
C281       C1012   1.488       .  S
C282       C1216   1.479       .  S
C283        C625   1.491       .  S
C284       C1420   1.476       .  S
C285        C601   1.604       .  S
C285        C613   1.593       .  S
C285        C628   1.596       .  S
C285       C1105   1.587   1_545  S
C286        C577   1.589       .  S
C286        C589   1.595       .  S
C286        C940   1.601   1_455  S
C286       C1264   1.627       .  S
Zn287       O291   1.957       .  S
Zn287       O292   2.099       .  S
Zn287       O296   2.119       .  S
Zn287       O303   2.116       .  S
Zn288       O291   1.932   1_655  S
Zn288       O293   1.986       .  S
Zn288       O295   1.961       .  S
Zn288       O299   1.952       .  S
Zn289       O291   1.916       .  S
Zn289       O294   1.914       .  S
Zn289       O297   1.998       .  S
Zn289       O300   2.030       .  S
Zn290       O291   1.929   1_655  S
Zn290       O298   2.013       .  S
Zn290       O301   2.005       .  S
Zn290       O302   1.941       .  S
O292        C304   1.288   1_455  A
O293        C305   1.273   1_655  A
O294        C306   1.259       .  A
O295        C304   1.261       .  A
O296        C306   1.288       .  A
O297        C305   1.270       .  A
O298        C307   1.274   1_655  A
O299        C308   1.265       .  A
O300        C307   1.274       .  A
O301        C308   1.275       .  A
O302        C309   1.261       .  A
O303        C309   1.286   1_455  A
C304        C724   1.500       .  S
C305        C580   1.488       .  S
C306        C697   1.472       .  S
C307        C565   1.503       .  S
C308        C952   1.476       .  S
C309       C1492   1.480       .  S
C310        C553   1.608       .  S
C310        C568   1.607       .  S
C310        C820   1.599   1_455  S
C310       C1408   1.626       .  S
C311        C517   1.588   1_565  S
C311        C532   1.596       .  S
C311        C541   1.588   1_556  S
C311       C1036   1.618       .  S
Zn312       O316   1.923   1_655  S
Zn312       O317   2.078   1_655  S
Zn312       O321   2.111       .  S
Zn312       O328   2.142       .  S
Zn313       O316   1.950   1_554  S
Zn313       O318   2.029       .  S
Zn313       O320   1.920       .  S
Zn313       O324   2.045       .  S
Zn314       O316   1.915   1_545  S
Zn314       O319   1.960       .  S
Zn314       O322   2.000       .  S
Zn314       O325   2.011       .  S
Zn315       O316   1.919   1_644  S
Zn315       O323   1.981   1_655  S
Zn315       O326   1.992       .  S
Zn315       O327   1.968       .  S
O317        C329   1.287       .  A
O318        C330   1.277       .  A
O319        C331   1.262   1_545  A
O320        C329   1.257   1_554  A
O321        C331   1.291   1_655  A
O322        C330   1.275   1_546  A
O323        C332   1.271   1_554  A
O324        C333   1.276   1_455  A
O325        C332   1.272       .  A
O326        C333   1.272   1_545  A
O327        C334   1.261   1_554  A
O328        C334   1.288   1_565  A
C329       C1369   1.486       .  S
C330        C529   1.471   1_554  S
C331       C1804   1.501   1_565  S
C332        C496   1.487   1_455  S
C333        C505   1.486       .  S
C334       C1900   1.499   1_556  S
C335        C472   1.598   1_565  S
C335        C484   1.602   1_655  S
C335        C508   1.589       .  S
C335        C748   1.623       .  S
C336        C445   1.596   1_556  S
C336        C457   1.593       .  S
C336        C493   1.576   1_455  S
C336       C1528   1.605   1_455  S
Zn337       O341   1.908       .  S
Zn337       O342   1.991       .  S
Zn337       O346   2.020       .  S
Zn337       O353   1.991       .  S
Zn338       O341   1.918   1_554  S
Zn338       O343   2.010       .  S
Zn338       O345   2.045       .  S
Zn338       O349   1.908       .  S
Zn339       O341   1.887       .  S
Zn339       O344   1.991       .  S
Zn339       O347   2.036       .  S
Zn339       O350   1.929       .  S
Zn340       O341   1.973   1_554  S
Zn340       O348   2.123       .  S
Zn340       O351   2.133       .  S
Zn340       O352   2.116   1_554  S
O342        C354   1.279   1_556  A
O343        C355   1.269       .  A
O344        C356   1.271       .  A
O345        C354   1.277       .  A
O346        C356   1.279       .  A
O347        C355   1.277   1_556  A
O348        C357   1.289   1_554  A
O349        C358   1.253       .  A
O350        C357   1.265       .  A
O351        C358   1.281       .  A
O352        C359   1.286       .  A
O353        C359   1.265       .  A
C354       C1633   1.473       .  S
C355       C1357   1.478       .  S
C356       C1756   1.491       .  S
C357        C460   1.482       .  S
C358        C433   1.495       .  S
C359        C520   1.495       .  S
Zn360       O364   1.925       .  S
Zn360       O365   2.010       .  S
Zn360       O369   1.947       .  S
Zn360       O376   1.999       .  S
Zn361       O364   1.944   1_565  S
Zn361       O366   1.966       .  S
Zn361       O368   2.020       .  S
Zn361       O372   2.028       .  S
Zn362       O364   1.939   1_565  S
Zn362       O367   2.110       .  S
Zn362       O370   2.107       .  S
Zn362       O373   2.062       .  S
Zn363       O364   1.937       .  S
Zn363       O371   1.942       .  S
Zn363       O374   1.974       .  S
Zn363       O375   1.998       .  S
O365        C377   1.277   1_545  A
O366        C378   1.265       .  A
O367        C379   1.286   1_565  A
O368        C377   1.273       .  A
O369        C379   1.260       .  A
O370        C378   1.287       .  A
O371        C380   1.259       .  A
O372        C381   1.276       .  A
O373        C380   1.284   1_565  A
O374        C381   1.272   1_545  A
O375        C382   1.269       .  A
O376        C382   1.274       .  A
C377        C544   1.496       .  S
C378       C1300   1.505       .  S
C379        C616   1.480       .  S
C380       C1429   1.487       .  S
C381        C481   1.492       .  S
C382        C421   1.463       .  S
Zn383       O387   1.935   1_655  S
Zn383       O388   2.007       .  S
Zn383       O392   2.008       .  S
Zn383       O399   1.954       .  S
Zn384       O387   1.934       .  S
Zn384       O389   2.024       .  S
Zn384       O391   2.022       .  S
Zn384       O395   1.926       .  S
Zn385       O387   1.949   1_655  S
Zn385       O390   2.010       .  S
Zn385       O393   2.013       .  S
Zn385       O396   1.947       .  S
Zn386       O387   1.958       .  S
Zn386       O394   2.122       .  S
Zn386       O397   2.091       .  S
Zn386       O398   2.085       .  S
O388        C400   1.273   1_655  A
O389        C401   1.274       .  A
O390        C402   1.273       .  A
O391        C400   1.276       .  A
O392        C402   1.272       .  A
O393        C401   1.274   1_655  A
O394        C403   1.289       .  A
O395        C404   1.259       .  A
O396        C403   1.261   1_655  A
O397        C404   1.283       .  A
O398        C405   1.283       .  A
O399        C405   1.263   1_655  A
C400        C592   1.471       .  S
C401        C556   1.500       .  S
C402        C868   1.489       .  S
C403        C469   1.507       .  S
C404        C412   1.468       .  S
C405        C448   1.498       .  S
C406        C409   1.579       .  S
C406        C424   1.599       .  S
C406        C436   1.588       .  S
C406        C664   1.606       .  S
C407        C604   1.614       .  S
C407        C877   1.616       .  S
C407       C1645   1.630       .  S
C407       C1936   1.623       .  S
C408        C976   1.596       .  S
C408       C1228   1.620       .  S
C408       C1684   1.623       .  S
C408       C1888   1.621       .  S
C409        C410   1.421       .  A
C409        C414   1.431       .  A
C410        C411   1.397       .  A
C410        H419   1.084       .  S
C411        C412   1.409       .  A
C411        S415   1.805       .  S
C412        C413   1.399       .  A
C413        C414   1.411       .  A
C413        H420   1.083       .  S
C414        S416   1.801       .  S
S415        H418   1.406       .  S
S416        H417   1.407       .  S
C421        C422   1.368       .  A
C421        C426   1.415       .  A
C422        C423   1.378       .  A
C422        H431   1.088       .  S
C423        C424   1.463       .  A
C423        S427   1.814       .  S
C424        C425   1.417       .  A
C425        C426   1.413       .  A
C425        H432   1.077       .  S
C426        S428   1.805       .  S
S427        H430   1.369       .  S
S428        H429   1.403       .  S
C433        C434   1.420       .  A
C433        C438   1.407       .  A
C434        C435   1.405       .  A
C434        H443   1.084       .  S
C435        C436   1.406       .  A
C435        S439   1.796       .  S
C436        C437   1.431       .  A
C437        C438   1.405       .  A
C437        H444   1.083       .  S
C438        S440   1.800       .  S
S439        H442   1.406       .  S
S440        H441   1.404       .  S
C445        C446   1.431       .  A
C445        C450   1.418   1_455  A
C446        C447   1.384       .  A
C446        H455   1.081       .  S
C447        C448   1.400       .  A
C447        S451   1.804       .  S
C448        C449   1.423   1_455  A
C449        C450   1.421       .  A
C449        H456   1.082       .  S
C450        S452   1.805       .  S
S451        H454   1.408       .  S
S452        H453   1.406       .  S
C457        C458   1.421       .  A
C457        C462   1.431       .  A
C458        C459   1.403       .  A
C458        H467   1.084       .  S
C459        C460   1.415       .  A
C459        S463   1.805   1_556  S
C460        C461   1.399       .  A
C461        C462   1.406       .  A
C461        H468   1.085       .  S
C462        S464   1.800       .  S
S463        H466   1.407       .  S
S464        H465   1.402       .  S
C469        C470   1.426   1_455  A
C469        C474   1.399       .  A
C470        C471   1.421       .  A
C470        H479   1.083       .  S
C471        C472   1.423       .  A
C471        S475   1.801       .  S
C472        C473   1.439   1_655  A
C473        C474   1.392       .  A
C473        H480   1.079       .  S
C474        S476   1.813       .  S
S475        H478   1.397       .  S
S476        H477   1.407       .  S
C481        C482   1.406       .  A
C481        C486   1.411       .  A
C482        C483   1.398       .  A
C482        H491   1.082       .  S
C483        C484   1.434       .  A
C483        S487   1.809       .  S
C484        C485   1.420       .  A
C485        C486   1.401       .  A
C485        H492   1.066       .  S
C486        S488   1.801       .  S
S487        H490   1.407       .  S
S488        H489   1.408       .  S
C493        C494   1.417       .  A
C493        C498   1.394       .  A
C494        C495   1.396       .  A
C494        H503   1.083   1_556  S
C495        C496   1.420       .  A
C495        S499   1.803   1_556  S
C496        C497   1.417   1_655  A
C497        C498   1.409   1_455  A
C497        H504   1.082       .  S
C498        S500   1.803       .  S
S499        H502   1.402       .  S
S500        H501   1.407       .  S
C505        C506   1.394   1_565  A
C505        C510   1.419       .  A
C506        C507   1.394       .  A
C506        H515   1.083       .  S
C507        C508   1.443   1_545  A
C507        S511   1.816       .  S
C508        C509   1.405       .  A
C509        C510   1.415       .  A
C509        H516   1.084       .  S
C510        S512   1.801       .  S
S511        H514   1.407       .  S
S512        H513   1.407       .  S
C517        C518   1.426       .  A
C517        C522   1.412       .  A
C518        C519   1.408       .  A
C518        H527   1.082       .  S
C519        C520   1.410       .  A
C519        S523   1.802       .  S
C520        C521   1.409       .  A
C521        C522   1.417       .  A
C521        H528   1.083       .  S
C522        S524   1.803       .  S
S523        H526   1.408       .  S
S524        H525   1.407       .  S
C529        C530   1.375   1_566  A
C529        C534   1.417       .  A
C530        C531   1.388   1_554  A
C530        H539   1.085       .  S
C531        C532   1.456   1_545  A
C531        S535   1.810   1_556  S
C532        C533   1.413       .  A
C533        C534   1.412       .  A
C533        H540   1.079       .  S
C534        S536   1.804       .  S
S535        H538   1.408       .  S
S536        H537   1.404       .  S
C541        C542   1.418       .  A
C541        C546   1.423   1_565  A
C542        C543   1.405       .  A
C542        H551   1.083       .  S
C543        C544   1.420       .  A
C543        S547   1.800       .  S
C544        C545   1.404   1_565  A
C545        C546   1.401       .  A
C545        H552   1.084       .  S
C546        S548   1.792       .  S
S547        H550   1.408       .  S
S548        H549   1.405   1_545  S
C553        C554   1.426       .  A
C553        C558   1.413       .  A
C554        C555   1.402       .  A
C554        H563   1.081   1_455  S
C555        C556   1.419       .  A
C555        S559   1.813   1_455  S
C556        C557   1.414       .  A
C557        C558   1.409       .  A
C557        H564   1.083       .  S
C558        S560   1.806       .  S
S559        H562   1.406       .  S
S560        H561   1.403       .  S
C565        C566   1.406       .  A
C565        C570   1.418       .  A
C566        C567   1.404       .  A
C566        H575   1.083   1_455  S
C567        C568   1.442       .  A
C567        S571   1.812       .  S
C568        C569   1.407       .  A
C569        C570   1.411       .  A
C569        H576   1.066       .  S
C570        S572   1.809       .  S
S571        H574   1.391       .  S
S572        H573   1.407       .  S
C577        C578   1.423       .  A
C577        C582   1.416   1_455  A
C578        C579   1.402       .  A
C578        H587   1.084       .  S
C579        C580   1.422       .  A
C579        S583   1.802       .  S
C580        C581   1.410   1_455  A
C581        C582   1.398       .  A
C581        H588   1.084       .  S
C582        S584   1.808       .  S
S583        H586   1.408       .  S
S584        H585   1.403   1_655  S
C589        C590   1.435   1_455  A
C589        C594   1.418       .  A
C590        C591   1.381       .  A
C590        H599   1.080       .  S
C591        C592   1.388   1_655  A
C591        S595   1.805       .  S
C592        C593   1.413       .  A
C593        C594   1.421       .  A
C593        H600   1.083       .  S
C594        S596   1.793       .  S
S595        H598   1.406       .  S
S596        H597   1.407       .  S
C601        C602   1.419       .  A
C601        C606   1.438       .  A
C602        C603   1.429       .  A
C602        H611   1.081       .  S
C603        C604   1.434       .  A
C603        S607   1.808       .  S
C604        C605   1.420       .  A
C605        C606   1.420       .  A
C605        H612   1.076       .  S
C606        S608   1.814   1_545  S
S607        H610   1.406       .  S
S608        H609   1.407       .  S
C613        C614   1.421       .  A
C613        C618   1.416       .  A
C614        C615   1.402       .  A
C614        H623   1.083       .  S
C615        C616   1.409       .  A
C615        S619   1.804       .  S
C616        C617   1.410       .  A
C617        C618   1.413       .  A
C617        H624   1.084       .  S
C618        S620   1.798       .  S
S619        H622   1.404       .  S
S620        H621   1.405       .  S
C625        C626   1.418   1_565  A
C625        C630   1.396       .  A
C626        C627   1.417       .  A
C626        H635   1.082       .  S
C627        C628   1.427       .  A
C627        S631   1.808       .  S
C628        C629   1.435   1_545  A
C629        C630   1.384       .  A
C629        H636   1.081       .  S
C630        S632   1.804       .  S
S631        H634   1.406       .  S
S632        H633   1.408       .  S
C637        C638   1.410       .  A
C637        C642   1.413       .  A
C638        C639   1.406       .  A
C638        H647   1.083       .  S
C639        C640   1.415       .  A
C639        S643   1.797       .  S
C640        C641   1.420       .  A
C641        C642   1.399       .  A
C641        H648   1.083       .  S
C642        S644   1.803       .  S
S643        H646   1.403       .  S
S644        H645   1.408       .  S
C649        C650   1.415       .  A
C649        C654   1.440       .  A
C650        C651   1.417       .  A
C650        H659   1.081       .  S
C651        C652   1.445       .  A
C651        S655   1.810       .  S
C652        C653   1.414       .  A
C653        C654   1.428       .  A
C653        H660   1.078       .  S
C654        S656   1.794       .  S
S655        H658   1.408       .  S
S656        H657   1.408       .  S
C661        C662   1.412       .  A
C661        C666   1.442       .  A
C662        C663   1.411       .  A
C662        H671   1.083       .  S
C663        C664   1.444       .  A
C663        S667   1.812       .  S
C664        C665   1.416       .  A
C665        C666   1.431       .  A
C665        H672   1.080       .  S
C666        S668   1.806       .  S
S667        H670   1.408       .  S
S668        H669   1.408       .  S
C673        C674   1.413       .  A
C673        C678   1.452       .  A
C674        C675   1.424       .  A
C674        H683   1.057       .  S
C675        C676   1.436       .  A
C675        S679   1.809       .  S
C676        C677   1.417       .  A
C677        C678   1.427       .  A
C677        H684   1.073       .  S
C678        S680   1.811       .  S
S679        H682   1.406       .  S
S680        H681   1.409       .  S
C685        C686   1.393       .  A
C685        C690   1.411       .  A
C686        C687   1.406       .  A
C686        H695   1.083       .  S
C687        C688   1.457       .  A
C687        S691   1.810       .  S
C688        C689   1.415       .  A
C689        C690   1.414       .  A
C689        H696   1.073       .  S
C690        S692   1.802       .  S
S691        H694   1.407       .  S
S692        H693   1.406       .  S
C697        C698   1.400       .  A
C697        C702   1.409       .  A
C698        C699   1.408       .  A
C698        H707   1.083       .  S
C699        C700   1.437       .  A
C699        S703   1.812       .  S
C700        C701   1.417       .  A
C701        C702   1.403       .  A
C701        H708   1.061       .  S
C702        S704   1.806       .  S
S703        H706   1.406       .  S
S704        H705   1.406       .  S
C709        C710   1.426       .  A
C709        C714   1.439       .  A
C710        C711   1.429       .  A
C710        H719   1.076       .  S
C711        C712   1.431       .  A
C711        S715   1.810       .  S
C712        C713   1.421       .  A
C713        C714   1.417       .  A
C713        H720   1.075       .  S
C714        S716   1.812       .  S
S715        H718   1.406       .  S
S716        H717   1.407       .  S
C721        C722   1.414       .  A
C721        C726   1.462   1_655  A
C722        C723   1.419       .  A
C722        H731   1.080       .  S
C723        C724   1.427       .  A
C723        S727   1.801       .  S
C724        C725   1.378   1_655  A
C725        C726   1.387       .  A
C725        H732   1.085       .  S
C726        S728   1.813       .  S
S727        H730   1.407       .  S
S728        H729   1.362       .  S
C733        C734   1.418       .  A
C733        C738   1.419       .  A
C734        C735   1.398       .  A
C734        H743   1.083       .  S
C735        C736   1.421       .  A
C735        S739   1.803   1_565  S
C736        C737   1.408       .  A
C737        C738   1.402       .  A
C737        H744   1.084       .  S
C738        S740   1.798       .  S
S739        H742   1.408       .  S
S740        H741   1.408       .  S
C745        C746   1.422       .  A
C745        C750   1.434       .  A
C746        C747   1.429       .  A
C746        H755   1.080       .  S
C747        C748   1.435       .  A
C747        S751   1.794       .  S
C748        C749   1.424       .  A
C749        C750   1.416       .  A
C749        H756   1.073   1_655  S
C750        S752   1.804       .  S
S751        H754   1.408       .  S
S752        H753   1.408   1_655  S
C757        C758   1.420       .  A
C757        C762   1.447       .  A
C758        C759   1.431       .  A
C758        H767   1.082       .  S
C759        C760   1.444       .  A
C759        S763   1.807       .  S
C760        C761   1.415       .  A
C761        C762   1.416       .  A
C761        H768   1.070       .  S
C762        S764   1.814       .  S
S763        H766   1.397       .  S
S764        H765   1.409       .  S
C769        C770   1.422       .  A
C769        C774   1.433       .  A
C770        C771   1.425       .  A
C770        H779   1.084       .  S
C771        C772   1.436       .  A
C771        S775   1.798       .  S
C772        C773   1.419       .  A
C773        C774   1.407       .  A
C773        H780   1.074       .  S
C774        S776   1.810       .  S
S775        H778   1.398   1_565  S
S776        H777   1.408       .  S
C781        C782   1.420       .  A
C781        C786   1.433       .  A
C782        C783   1.411       .  A
C782        H791   1.079       .  S
C783        C784   1.431       .  A
C783        S787   1.811       .  S
C784        C785   1.424       .  A
C785        C786   1.429       .  A
C785        H792   1.074       .  S
C786        S788   1.807       .  S
S787        H790   1.407       .  S
S788        H789   1.407       .  S
C793        C794   1.373       .  A
C793        C798   1.417       .  A
C794        C795   1.392       .  A
C794        H803   1.087       .  S
C795        C796   1.464       .  A
C795        S799   1.807       .  S
C796        C797   1.420       .  A
C797        C798   1.419       .  A
C797        H804   1.077       .  S
C798        S800   1.803       .  S
S799        H802   1.363       .  S
S800        H801   1.404       .  S
C805        C806   1.413       .  A
C805        C810   1.388       .  A
C806        C807   1.421       .  A
C806        H815   1.083       .  S
C807        C808   1.424       .  A
C807        S811   1.805       .  S
C808        C809   1.433       .  A
C809        C810   1.380       .  A
C809        H816   1.080       .  S
C810        S812   1.806       .  S
S811        H814   1.407       .  S
S812        H813   1.407       .  S
C817        C818   1.425       .  A
C817        C822   1.401       .  A
C818        C819   1.423       .  A
C818        H827   1.082       .  S
C819        C820   1.417       .  A
C819        S823   1.803       .  S
C820        C821   1.435       .  A
C821        C822   1.392       .  A
C821        H828   1.081       .  S
C822        S824   1.812       .  S
S823        H826   1.407       .  S
S824        H825   1.407       .  S
C829        C830   1.412       .  A
C829        C834   1.428       .  A
C830        C831   1.406       .  A
C830        H839   1.081       .  S
C831        C832   1.414       .  A
C831        S835   1.802       .  S
C832        C833   1.400       .  A
C833        C834   1.401       .  A
C833        H840   1.082       .  S
C834        S836   1.800       .  S
S835        H838   1.408       .  S
S836        H837   1.406       .  S
C841        C842   1.413       .  A
C841        C846   1.406       .  A
C842        C843   1.410       .  A
C842        H851   1.083       .  S
C843        C844   1.406       .  A
C843        S847   1.803       .  S
C844        C845   1.423       .  A
C845        C846   1.397       .  A
C845        H852   1.081   1_565  S
C846        S848   1.802   1_565  S
S847        H850   1.403       .  S
S848        H849   1.406       .  S
C853        C854   1.405       .  A
C853        C858   1.400       .  A
C854        C855   1.408       .  A
C854        H863   1.084       .  S
C855        C856   1.430       .  A
C855        S859   1.800       .  S
C856        C857   1.423       .  A
C857        C858   1.398       .  A
C857        H864   1.066       .  S
C858        S860   1.804       .  S
S859        H862   1.406       .  S
S860        H861   1.407       .  S
C865        C866   1.418       .  A
C865        C870   1.407       .  A
C866        C867   1.399       .  A
C866        H875   1.081       .  S
C867        C868   1.415       .  A
C867        S871   1.810       .  S
C868        C869   1.415       .  A
C869        C870   1.412       .  A
C869        H876   1.083       .  S
C870        S872   1.803       .  S
S871        H874   1.407       .  S
S872        H873   1.407       .  S
C877        C878   1.416       .  A
C877        C882   1.434       .  A
C878        C879   1.426       .  A
C878        H887   1.078       .  S
C879        C880   1.446       .  A
C879        S883   1.811       .  S
C880        C881   1.421       .  A
C881        C882   1.424       .  A
C881        H888   1.078       .  S
C882        S884   1.811       .  S
S883        H886   1.407       .  S
S884        H885   1.406       .  S
C889        C890   1.400       .  A
C889        C894   1.397       .  A
C890        C891   1.406       .  A
C890        H899   1.083       .  S
C891        C892   1.437       .  A
C891        S895   1.810       .  S
C892        C893   1.427       .  A
C893        C894   1.394       .  A
C893        H900   1.059       .  S
C894        S896   1.807       .  S
S895        H898   1.406       .  S
S896        H897   1.407       .  S
C901        C902   1.400       .  A
C901        C906   1.414       .  A
C902        C903   1.398       .  A
C902        H911   1.079       .  S
C903        C904   1.425       .  A
C903        S907   1.809       .  S
C904        C905   1.416       .  A
C905        C906   1.406       .  A
C905        H912   1.067       .  S
C906        S908   1.800       .  S
S907        H910   1.404       .  S
S908        H909   1.407       .  S
C913        C914   1.408       .  A
C913        C918   1.386       .  A
C914        C915   1.413       .  A
C914        H923   1.083       .  S
C915        C916   1.420       .  A
C915        S919   1.793       .  S
C916        C917   1.438       .  A
C917        C918   1.377       .  A
C917        H924   1.083       .  S
C918        S920   1.806       .  S
S919        H922   1.406       .  S
S920        H921   1.406       .  S
C925        C926   1.424       .  A
C925        C930   1.398       .  A
C926        C927   1.425       .  A
C926        H935   1.082       .  S
C927        C928   1.422       .  A
C927        S931   1.803       .  S
C928        C929   1.436       .  A
C929        C930   1.391       .  A
C929        H936   1.079       .  S
C930        S932   1.803       .  S
S931        H934   1.406       .  S
S932        H933   1.408       .  S
C937        C938   1.396       .  A
C937        C942   1.413       .  A
C938        C939   1.409       .  A
C938        H947   1.083       .  S
C939        C940   1.449       .  A
C939        S943   1.813       .  S
C940        C941   1.398       .  A
C941        C942   1.407       .  A
C941        H948   1.070       .  S
C942        S944   1.799       .  S
S943        H946   1.406       .  S
S944        H945   1.406       .  S
C949        C950   1.425       .  A
C949        C954   1.405       .  A
C950        C951   1.386       .  A
C950        H959   1.084       .  S
C951        C952   1.410       .  A
C951        S955   1.801       .  S
C952        C953   1.414       .  A
C953        C954   1.404       .  A
C953        H960   1.082       .  S
C954        S956   1.805       .  S
S955        H958   1.405       .  S
S956        H957   1.408       .  S
C961        C962   1.428       .  A
C961        C966   1.424       .  A
C962        C963   1.402       .  A
C962        H971   1.079       .  S
C963        C964   1.412       .  A
C963        S967   1.806       .  S
C964        C965   1.406       .  A
C965        C966   1.415       .  A
C965        H972   1.084       .  S
C966        S968   1.793       .  S
S967        H970   1.407       .  S
S968        H969   1.405       .  S
C973        C974   1.416       .  A
C973        C978   1.445       .  A
C974        C975   1.421       .  A
C974        H983   1.070       .  S
C975        C976   1.430       .  A
C975        S979   1.804       .  S
C976        C977   1.407       .  A
C977        C978   1.411       .  A
C977        H984   1.078       .  S
C978        S980   1.808       .  S
S979        H982   1.406       .  S
S980        H981   1.408       .  S
C985        C986   1.404       .  A
C985        C990   1.447       .  A
C986        C987   1.408       .  A
C986        H995   1.079       .  S
C987        C988   1.431       .  A
C987        S991   1.812       .  S
C988        C989   1.380       .  A
C989        C990   1.380       .  A
C989        H996   1.083       .  S
C990        S992   1.808       .  S
S991        H994   1.407       .  S
S992        H993   1.408       .  S
C997        C998   1.408       .  A
C997       C1002   1.461   1_556  A
C998        C999   1.410       .  A
C998       H1007   1.081       .  S
C999       C1000   1.429       .  A
C999       S1003   1.803       .  S
C1000      C1001   1.377   1_556  A
C1001      C1002   1.389       .  A
C1001      H1008   1.085       .  S
C1002      S1004   1.813       .  S
S1003      H1006   1.408       .  S
S1004      H1005   1.364       .  S
C1009      C1010   1.419       .  A
C1009      C1014   1.410       .  A
C1010      C1011   1.393       .  A
C1010      H1019   1.078       .  S
C1011      C1012   1.417       .  A
C1011      S1015   1.812       .  S
C1012      C1013   1.412       .  A
C1013      C1014   1.410       .  A
C1013      H1020   1.083       .  S
C1014      S1016   1.804       .  S
S1015      H1018   1.408       .  S
S1016      H1017   1.405       .  S
C1021      C1022   1.406       .  A
C1021      C1026   1.455       .  A
C1022      C1023   1.417       .  A
C1022      H1031   1.082       .  S
C1023      C1024   1.434       .  A
C1023      S1027   1.803       .  S
C1024      C1025   1.379       .  A
C1025      C1026   1.390       .  A
C1025      H1032   1.084   1_565  S
C1026      S1028   1.806   1_565  S
S1027      H1030   1.400       .  S
S1028      H1029   1.408       .  S
C1033      C1034   1.435       .  A
C1033      C1038   1.441       .  A
C1034      C1035   1.444       .  A
C1034      H1043   1.071       .  S
C1035      C1036   1.432       .  A
C1035      S1039   1.807       .  S
C1036      C1037   1.413       .  A
C1037      C1038   1.417       .  A
C1037      H1044   1.075       .  S
C1038      S1040   1.803       .  S
S1039      H1042   1.406       .  S
S1040      H1041   1.406       .  S
C1045      C1046   1.420       .  A
C1045      C1050   1.448       .  A
C1046      C1047   1.429       .  A
C1046      H1055   1.082       .  S
C1047      C1048   1.435       .  A
C1047      S1051   1.801       .  S
C1048      C1049   1.418       .  A
C1049      C1050   1.416       .  A
C1049      H1056   1.075       .  S
C1050      S1052   1.814       .  S
S1051      H1054   1.406       .  S
S1052      H1053   1.408       .  S
C1057      C1058   1.421       .  A
C1057      C1062   1.436       .  A
C1058      C1059   1.432       .  A
C1058      H1067   1.080       .  S
C1059      C1060   1.433       .  A
C1059      S1063   1.801       .  S
C1060      C1061   1.421       .  A
C1061      C1062   1.412       .  A
C1061      H1068   1.076       .  S
C1062      S1064   1.806       .  S
S1063      H1066   1.406       .  S
S1064      H1065   1.408       .  S
C1069      C1070   1.414       .  A
C1069      C1074   1.409       .  A
C1070      C1071   1.408       .  A
C1070      H1079   1.084       .  S
C1071      C1072   1.415       .  A
C1071      S1075   1.799       .  S
C1072      C1073   1.424       .  A
C1073      C1074   1.396       .  A
C1073      H1080   1.079       .  S
C1074      S1076   1.802       .  S
S1075      H1078   1.400       .  S
S1076      H1077   1.408       .  S
C1081      C1082   1.402       .  A
C1081      C1086   1.419       .  A
C1082      C1083   1.401       .  A
C1082      H1091   1.083       .  S
C1083      C1084   1.440       .  A
C1083      S1087   1.805       .  S
C1084      C1085   1.406       .  A
C1085      C1086   1.403       .  A
C1085      H1092   1.075       .  S
C1086      S1088   1.800       .  S
S1087      H1090   1.398       .  S
S1088      H1089   1.408       .  S
C1093      C1094   1.412       .  A
C1093      C1098   1.408       .  A
C1094      C1095   1.416       .  A
C1094      H1103   1.083       .  S
C1095      C1096   1.414       .  A
C1095      S1099   1.803       .  S
C1096      C1097   1.421       .  A
C1097      C1098   1.390       .  A
C1097      H1104   1.077       .  S
C1098      S1100   1.808       .  S
S1099      H1102   1.403   1_554  S
S1100      H1101   1.408       .  S
C1105      C1106   1.422       .  A
C1105      C1110   1.433       .  A
C1106      C1107   1.403       .  A
C1106      H1115   1.059       .  S
C1107      C1108   1.404       .  A
C1107      S1111   1.804       .  S
C1108      C1109   1.404       .  A
C1109      C1110   1.402       .  A
C1109      H1116   1.083       .  S
C1110      S1112   1.807       .  S
S1111      H1114   1.407       .  S
S1112      H1113   1.407       .  S
C1117      C1118   1.421       .  A
C1117      C1122   1.443       .  A
C1118      C1119   1.432       .  A
C1118      H1127   1.077       .  S
C1119      C1120   1.446       .  A
C1119      S1123   1.814       .  S
C1120      C1121   1.415       .  A
C1121      C1122   1.431       .  A
C1121      H1128   1.081       .  S
C1122      S1124   1.799       .  S
S1123      H1126   1.406       .  S
S1124      H1125   1.407       .  S
C1129      C1130   1.413   1_655  A
C1129      C1134   1.431       .  A
C1130      C1131   1.400       .  A
C1130      H1139   1.058       .  S
C1131      C1132   1.415       .  A
C1131      S1135   1.811       .  S
C1132      C1133   1.403   1_455  A
C1133      C1134   1.401       .  A
C1133      H1140   1.082       .  S
C1134      S1136   1.811       .  S
S1135      H1138   1.407       .  S
S1136      H1137   1.407       .  S
C1141      C1142   1.414       .  A
C1141      C1146   1.412       .  A
C1142      C1143   1.413       .  A
C1142      H1151   1.083       .  S
C1143      C1144   1.409       .  A
C1143      S1147   1.802       .  S
C1144      C1145   1.427       .  A
C1145      C1146   1.393       .  A
C1145      H1152   1.074       .  S
C1146      S1148   1.814       .  S
S1147      H1150   1.406       .  S
S1148      H1149   1.407       .  S
C1153      C1154   1.380       .  A
C1153      C1158   1.426       .  A
C1154      C1155   1.385       .  A
C1154      H1163   1.085       .  S
C1155      C1156   1.458       .  A
C1155      S1159   1.814       .  S
C1156      C1157   1.411       .  A
C1157      C1158   1.410       .  A
C1157      H1164   1.080       .  S
C1158      S1160   1.801       .  S
S1159      H1162   1.366       .  S
S1160      H1161   1.408       .  S
C1165      C1166   1.407       .  A
C1165      C1170   1.413       .  A
C1166      C1167   1.418       .  A
C1166      H1175   1.084       .  S
C1167      C1168   1.427       .  A
C1167      S1171   1.793       .  S
C1168      C1169   1.426       .  A
C1169      C1170   1.409       .  A
C1169      H1176   1.083       .  S
C1170      S1172   1.803       .  S
S1171      H1174   1.406       .  S
S1172      H1173   1.406       .  S
C1177      C1178   1.416       .  A
C1177      C1182   1.415       .  A
C1178      C1179   1.410       .  A
C1178      H1187   1.083       .  S
C1179      C1180   1.412       .  A
C1179      S1183   1.805       .  S
C1180      C1181   1.418       .  A
C1181      C1182   1.388       .  A
C1181      H1188   1.082       .  S
C1182      S1184   1.801       .  S
S1183      H1186   1.404       .  S
S1184      H1185   1.407       .  S
C1189      C1190   1.374       .  A
C1189      C1194   1.421       .  A
C1190      C1191   1.383       .  A
C1190      H1199   1.085       .  S
C1191      C1192   1.452       .  A
C1191      S1195   1.809       .  S
C1192      C1193   1.410       .  A
C1193      C1194   1.414       .  A
C1193      H1200   1.081       .  S
C1194      S1196   1.805       .  S
S1195      H1198   1.408       .  S
S1196      H1197   1.403       .  S
C1201      C1202   1.415       .  A
C1201      C1206   1.417       .  A
C1202      C1203   1.411       .  A
C1202      H1211   1.083       .  S
C1203      C1204   1.418       .  A
C1203      S1207   1.803       .  S
C1204      C1205   1.419       .  A
C1205      C1206   1.398       .  A
C1205      H1212   1.083       .  S
C1206      S1208   1.801       .  S
S1207      H1210   1.393       .  S
S1208      H1209   1.402       .  S
C1213      C1214   1.422       .  A
C1213      C1218   1.404       .  A
C1214      C1215   1.395       .  A
C1214      H1223   1.080       .  S
C1215      C1216   1.408       .  A
C1215      S1219   1.809       .  S
C1216      C1217   1.414       .  A
C1217      C1218   1.415       .  A
C1217      H1224   1.083       .  S
C1218      S1220   1.805       .  S
S1219      H1222   1.407       .  S
S1220      H1221   1.407       .  S
C1225      C1226   1.412       .  A
C1225      C1230   1.434       .  A
C1226      C1227   1.418       .  A
C1226      H1235   1.077       .  S
C1227      C1228   1.448       .  A
C1227      S1231   1.807       .  S
C1228      C1229   1.421       .  A
C1229      C1230   1.431       .  A
C1229      H1236   1.081       .  S
C1230      S1232   1.803       .  S
S1231      H1234   1.409       .  S
S1232      H1233   1.407       .  S
C1237      C1238   1.404       .  A
C1237      C1242   1.413       .  A
C1238      C1239   1.409       .  A
C1238      H1247   1.085       .  S
C1239      C1240   1.427       .  A
C1239      S1243   1.795       .  S
C1240      C1241   1.423       .  A
C1241      C1242   1.407       .  A
C1241      H1248   1.084       .  S
C1242      S1244   1.803       .  S
S1243      H1246   1.406       .  S
S1244      H1245   1.406       .  S
C1249      C1250   1.405       .  A
C1249      C1254   1.451       .  A
C1250      C1251   1.407       .  A
C1250      H1259   1.081       .  S
C1251      C1252   1.428       .  A
C1251      S1255   1.799       .  S
C1252      C1253   1.383       .  A
C1253      C1254   1.383       .  A
C1253      H1260   1.083       .  S
C1254      S1256   1.814       .  S
S1255      H1258   1.408       .  S
S1256      H1257   1.408       .  S
C1261      C1262   1.412       .  A
C1261      C1266   1.434       .  A
C1262      C1263   1.417       .  A
C1262      H1271   1.075       .  S
C1263      C1264   1.453       .  A
C1263      S1267   1.815       .  S
C1264      C1265   1.421       .  A
C1265      C1266   1.434       .  A
C1265      H1272   1.064       .  S
C1266      S1268   1.804       .  S
S1267      H1270   1.409       .  S
S1268      H1269   1.406       .  S
C1273      C1274   1.421       .  A
C1273      C1278   1.429       .  A
C1274      C1275   1.392       .  A
C1274      H1283   1.080       .  S
C1275      C1276   1.400       .  A
C1275      S1279   1.797       .  S
C1276      C1277   1.407       .  A
C1277      C1278   1.413       .  A
C1277      H1284   1.080       .  S
C1278      S1280   1.801       .  S
S1279      H1282   1.407       .  S
S1280      H1281   1.407       .  S
C1285      C1286   1.430       .  A
C1285      C1290   1.426       .  A
C1286      C1287   1.401       .  A
C1286      H1295   1.062       .  S
C1287      C1288   1.400       .  A
C1287      S1291   1.805       .  S
C1288      C1289   1.403       .  A
C1289      C1290   1.403       .  A
C1289      H1296   1.080       .  S
C1290      S1292   1.802       .  S
S1291      H1294   1.406       .  S
S1292      H1293   1.407       .  S
C1297      C1298   1.438       .  A
C1297      C1302   1.431       .  A
C1298      C1299   1.393       .  A
C1298      H1307   1.073       .  S
C1299      C1300   1.399       .  A
C1299      S1303   1.803       .  S
C1300      C1301   1.418       .  A
C1301      C1302   1.417       .  A
C1301      H1308   1.083       .  S
C1302      S1304   1.804       .  S
S1303      H1306   1.408       .  S
S1304      H1305   1.391       .  S
C1309      C1310   1.425       .  A
C1309      C1314   1.429       .  A
C1310      C1311   1.425       .  A
C1310      H1319   1.081       .  S
C1311      C1312   1.437       .  A
C1311      S1315   1.809       .  S
C1312      C1313   1.425       .  A
C1313      C1314   1.420       .  A
C1313      H1320   1.078       .  S
C1314      S1316   1.808       .  S
S1315      H1318   1.382       .  S
S1316      H1317   1.406       .  S
C1321      C1322   1.401       .  A
C1321      C1326   1.415   1_556  A
C1322      C1323   1.401       .  A
C1322      H1331   1.083       .  S
C1323      C1324   1.431   1_556  A
C1323      S1327   1.798       .  S
C1324      C1325   1.418       .  A
C1325      C1326   1.403       .  A
C1325      H1332   1.084       .  S
C1326      S1328   1.798       .  S
S1327      H1330   1.408       .  S
S1328      H1329   1.407       .  S
C1333      C1334   1.418       .  A
C1333      C1338   1.411       .  A
C1334      C1335   1.404       .  A
C1334      H1343   1.082       .  S
C1335      C1336   1.417       .  A
C1335      S1339   1.810       .  S
C1336      C1337   1.407       .  A
C1337      C1338   1.406       .  A
C1337      H1344   1.084       .  S
C1338      S1340   1.802       .  S
S1339      H1342   1.406       .  S
S1340      H1341   1.390       .  S
C1345      C1346   1.416       .  A
C1345      C1350   1.436       .  A
C1346      C1347   1.425       .  A
C1346      H1355   1.081       .  S
C1347      C1348   1.444       .  A
C1347      S1351   1.790       .  S
C1348      C1349   1.420       .  A
C1349      C1350   1.416       .  A
C1349      H1356   1.074       .  S
C1350      S1352   1.805       .  S
S1351      H1354   1.397       .  S
S1352      H1353   1.408       .  S
C1357      C1358   1.375   1_554  A
C1357      C1362   1.415       .  A
C1358      C1359   1.387       .  A
C1358      H1367   1.087       .  S
C1359      C1360   1.457   1_556  A
C1359      S1363   1.808       .  S
C1360      C1361   1.421       .  A
C1361      C1362   1.416       .  A
C1361      H1368   1.079       .  S
C1362      S1364   1.804       .  S
S1363      H1366   1.363       .  S
S1364      H1365   1.405       .  S
C1369      C1370   1.379       .  A
C1369      C1374   1.427   1_556  A
C1370      C1371   1.381       .  A
C1370      H1379   1.083   1_455  S
C1371      C1372   1.453   1_556  A
C1371      S1375   1.813   1_455  S
C1372      C1373   1.406       .  A
C1373      C1374   1.413       .  A
C1373      H1380   1.080       .  S
C1374      S1376   1.809       .  S
S1375      H1378   1.408       .  S
S1376      H1377   1.407       .  S
C1381      C1382   1.423   1_455  A
C1381      C1386   1.432       .  A
C1382      C1383   1.405       .  A
C1382      H1391   1.065       .  S
C1383      C1384   1.408   1_655  A
C1383      S1387   1.809       .  S
C1384      C1385   1.401       .  A
C1385      C1386   1.403       .  A
C1385      H1392   1.083       .  S
C1386      S1388   1.812       .  S
S1387      H1390   1.402       .  S
S1388      H1389   1.406       .  S
C1393      C1394   1.422       .  A
C1393      C1398   1.440       .  A
C1394      C1395   1.429       .  A
C1394      H1403   1.082       .  S
C1395      C1396   1.432       .  A
C1395      S1399   1.804       .  S
C1396      C1397   1.418       .  A
C1397      C1398   1.420       .  A
C1397      H1404   1.076   1_554  S
C1398      S1400   1.809       .  S
S1399      H1402   1.407       .  S
S1400      H1401   1.407   1_554  S
C1405      C1406   1.420       .  A
C1405      C1410   1.441       .  A
C1406      C1407   1.430       .  A
C1406      H1415   1.067       .  S
C1407      C1408   1.442       .  A
C1407      S1411   1.803       .  S
C1408      C1409   1.423       .  A
C1409      C1410   1.424       .  A
C1409      H1416   1.077       .  S
C1410      S1412   1.803       .  S
S1411      H1414   1.407       .  S
S1412      H1413   1.404       .  S
C1417      C1418   1.427       .  A
C1417      C1422   1.424   1_545  A
C1418      C1419   1.402       .  A
C1418      H1427   1.084       .  S
C1419      C1420   1.411   1_545  A
C1419      S1423   1.806       .  S
C1420      C1421   1.406       .  A
C1421      C1422   1.412       .  A
C1421      H1428   1.084       .  S
C1422      S1424   1.801       .  S
S1423      H1426   1.407       .  S
S1424      H1425   1.406   1_565  S
C1429      C1430   1.379   1_545  A
C1429      C1434   1.426       .  A
C1430      C1431   1.379       .  A
C1430      H1439   1.085       .  S
C1431      C1432   1.460   1_565  A
C1431      S1435   1.823       .  S
C1432      C1433   1.410       .  A
C1433      C1434   1.413       .  A
C1433      H1440   1.082       .  S
C1434      S1436   1.801       .  S
S1435      H1438   1.379       .  S
S1436      H1437   1.406       .  S
C1441      C1442   1.401       .  A
C1441      C1446   1.449       .  A
C1442      C1443   1.405       .  A
C1442      H1451   1.073       .  S
C1443      C1444   1.417       .  A
C1443      S1447   1.802       .  S
C1444      C1445   1.389       .  A
C1445      C1446   1.391       .  A
C1445      H1452   1.085       .  S
C1446      S1448   1.817       .  S
S1447      H1450   1.406       .  S
S1448      H1449   1.396       .  S
C1453      C1454   1.420       .  A
C1453      C1458   1.449       .  A
C1454      C1455   1.431       .  A
C1454      H1463   1.081       .  S
C1455      C1456   1.446       .  A
C1455      S1459   1.804   1_545  S
C1456      C1457   1.419       .  A
C1457      C1458   1.422       .  A
C1457      H1464   1.077       .  S
C1458      S1460   1.806       .  S
S1459      H1462   1.407       .  S
S1460      H1461   1.399       .  S
C1465      C1466   1.439       .  A
C1465      C1470   1.420       .  A
C1466      C1467   1.390   1_556  A
C1466      H1475   1.079   1_556  S
C1467      C1468   1.394   1_554  A
C1467      S1471   1.801       .  S
C1468      C1469   1.424       .  A
C1469      C1470   1.422       .  A
C1469      H1476   1.082       .  S
C1470      S1472   1.805       .  S
S1471      H1474   1.407       .  S
S1472      H1473   1.406       .  S
C1477      C1478   1.422       .  A
C1477      C1482   1.430       .  A
C1478      C1479   1.402       .  A
C1478      H1487   1.062       .  S
C1479      C1480   1.413       .  A
C1479      S1483   1.803       .  S
C1480      C1481   1.408       .  A
C1481      C1482   1.406       .  A
C1481      H1488   1.082       .  S
C1482      S1484   1.807       .  S
S1483      H1486   1.408       .  S
S1484      H1485   1.407       .  S
C1489      C1490   1.427       .  A
C1489      C1494   1.446       .  A
C1490      C1491   1.411       .  A
C1490      H1499   1.067       .  S
C1491      C1492   1.408       .  A
C1491      S1495   1.806       .  S
C1492      C1493   1.395       .  A
C1493      C1494   1.401       .  A
C1493      H1500   1.085   1_655  S
C1494      S1496   1.814   1_655  S
S1495      H1498   1.405       .  S
S1496      H1497   1.389   1_455  S
C1501      C1502   1.401       .  A
C1501      C1506   1.452   1_655  A
C1502      C1503   1.409       .  A
C1502      H1511   1.082       .  S
C1503      C1504   1.417       .  A
C1503      S1507   1.804       .  S
C1504      C1505   1.390   1_655  A
C1505      C1506   1.384       .  A
C1505      H1512   1.084       .  S
C1506      S1508   1.822       .  S
S1507      H1510   1.407       .  S
S1508      H1509   1.393       .  S
C1513      C1514   1.407       .  A
C1513      C1518   1.457       .  A
C1514      C1515   1.413       .  A
C1514      H1523   1.082       .  S
C1515      C1516   1.430       .  A
C1515      S1519   1.802       .  S
C1516      C1517   1.377       .  A
C1517      C1518   1.381       .  A
C1517      H1524   1.083       .  S
C1518      S1520   1.814       .  S
S1519      H1522   1.407       .  S
S1520      H1521   1.408       .  S
C1525      C1526   1.418       .  A
C1525      C1530   1.431       .  A
C1526      C1527   1.422       .  A
C1526      H1535   1.075       .  S
C1527      C1528   1.440       .  A
C1527      S1531   1.808   1_655  S
C1528      C1529   1.421       .  A
C1529      C1530   1.423       .  A
C1529      H1536   1.079       .  S
C1530      S1532   1.808       .  S
S1531      H1534   1.408       .  S
S1532      H1533   1.407       .  S
C1537      C1538   1.421       .  A
C1537      C1542   1.433       .  A
C1538      C1539   1.420       .  A
C1538      H1547   1.076       .  S
C1539      C1540   1.442       .  A
C1539      S1543   1.814       .  S
C1540      C1541   1.420       .  A
C1541      C1542   1.428       .  A
C1541      H1548   1.078       .  S
C1542      S1544   1.804       .  S
S1543      H1546   1.408       .  S
S1544      H1545   1.406       .  S
C1549      C1550   1.412       .  A
C1549      C1554   1.441       .  A
C1550      C1551   1.422       .  A
C1550      H1559   1.083       .  S
C1551      C1552   1.448       .  A
C1551      S1555   1.801       .  S
C1552      C1553   1.425       .  A
C1553      C1554   1.421       .  A
C1553      H1560   1.075       .  S
C1554      S1556   1.812       .  S
S1555      H1558   1.409       .  S
S1556      H1557   1.408       .  S
C1561      C1562   1.414       .  A
C1561      C1566   1.431       .  A
C1562      C1563   1.423       .  A
C1562      H1571   1.075       .  S
C1563      C1564   1.444       .  A
C1563      S1567   1.807       .  S
C1564      C1565   1.419       .  A
C1565      C1566   1.417       .  A
C1565      H1572   1.079       .  S
C1566      S1568   1.807       .  S
S1567      H1570   1.408       .  S
S1568      H1569   1.407       .  S
C1573      C1574   1.416       .  A
C1573      C1578   1.414       .  A
C1574      C1575   1.408       .  A
C1574      H1583   1.083       .  S
C1575      C1576   1.400       .  A
C1575      S1579   1.802       .  S
C1576      C1577   1.422       .  A
C1577      C1578   1.404       .  A
C1577      H1584   1.081       .  S
C1578      S1580   1.808       .  S
S1579      H1582   1.407       .  S
S1580      H1581   1.407       .  S
C1585      C1586   1.409   1_556  A
C1585      C1590   1.422       .  A
C1586      C1587   1.403       .  A
C1586      H1595   1.083       .  S
C1587      C1588   1.418   1_554  A
C1587      S1591   1.791       .  S
C1588      C1589   1.419       .  A
C1589      C1590   1.405       .  A
C1589      H1596   1.082       .  S
C1590      S1592   1.811       .  S
S1591      H1594   1.407   1_554  S
S1592      H1593   1.407       .  S
C1597      C1598   1.412       .  A
C1597      C1602   1.402       .  A
C1598      C1599   1.403       .  A
C1598      H1607   1.084       .  S
C1599      C1600   1.410       .  A
C1599      S1603   1.800       .  S
C1600      C1601   1.427       .  A
C1601      C1602   1.395       .  A
C1601      H1608   1.082       .  S
C1602      S1604   1.806       .  S
S1603      H1606   1.405   1_655  S
S1604      H1605   1.404       .  S
C1609      C1610   1.369       .  A
C1609      C1614   1.411       .  A
C1610      C1611   1.384       .  A
C1610      H1619   1.087       .  S
C1611      C1612   1.463       .  A
C1611      S1615   1.810       .  S
C1612      C1613   1.412       .  A
C1613      C1614   1.409       .  A
C1613      H1620   1.078       .  S
C1614      S1616   1.801       .  S
S1615      H1618   1.363       .  S
S1616      H1617   1.405       .  S
C1621      C1622   1.424       .  A
C1621      C1626   1.422   1_554  A
C1622      C1623   1.397       .  A
C1622      H1631   1.084       .  S
C1623      C1624   1.415       .  A
C1623      S1627   1.801       .  S
C1624      C1625   1.408   1_554  A
C1625      C1626   1.409       .  A
C1625      H1632   1.082       .  S
C1626      S1628   1.798       .  S
S1627      H1630   1.406       .  S
S1628      H1629   1.407       .  S
C1633      C1634   1.379   1_554  A
C1633      C1638   1.416       .  A
C1634      C1635   1.380       .  A
C1634      H1643   1.084       .  S
C1635      C1636   1.451   1_556  A
C1635      S1639   1.818       .  S
C1636      C1637   1.413       .  A
C1637      C1638   1.416       .  A
C1637      H1644   1.081       .  S
C1638      S1640   1.797       .  S
S1639      H1642   1.406       .  S
S1640      H1641   1.404       .  S
C1645      C1646   1.416       .  A
C1645      C1650   1.438       .  A
C1646      C1647   1.412       .  A
C1646      H1655   1.074       .  S
C1647      C1648   1.442       .  A
C1647      S1651   1.809       .  S
C1648      C1649   1.423       .  A
C1649      C1650   1.436       .  A
C1649      H1656   1.080       .  S
C1650      S1652   1.806       .  S
S1651      H1654   1.409       .  S
S1652      H1653   1.406       .  S
C1657      C1658   1.423       .  A
C1657      C1662   1.417       .  A
C1658      C1659   1.400       .  A
C1658      H1667   1.084       .  S
C1659      C1660   1.416       .  A
C1659      S1663   1.801       .  S
C1660      C1661   1.412       .  A
C1661      C1662   1.408       .  A
C1661      H1668   1.082       .  S
C1662      S1664   1.796       .  S
S1663      H1666   1.406       .  S
S1664      H1665   1.407       .  S
C1669      C1670   1.412       .  A
C1669      C1674   1.452       .  A
C1670      C1671   1.410       .  A
C1670      H1679   1.080       .  S
C1671      C1672   1.413       .  A
C1671      S1675   1.804       .  S
C1672      C1673   1.372       .  A
C1673      C1674   1.374       .  A
C1673      H1680   1.086       .  S
C1674      S1676   1.814       .  S
S1675      H1678   1.405       .  S
S1676      H1677   1.408       .  S
C1681      C1682   1.427       .  A
C1681      C1686   1.429       .  A
C1682      C1683   1.423       .  A
C1682      H1691   1.076       .  S
C1683      C1684   1.437       .  A
C1683      S1687   1.807       .  S
C1684      C1685   1.428       .  A
C1685      C1686   1.430       .  A
C1685      H1692   1.080       .  S
C1686      S1688   1.804       .  S
S1687      H1690   1.408       .  S
S1688      H1689   1.406       .  S
C1693      C1694   1.399       .  A
C1693      C1698   1.411       .  A
C1694      C1695   1.398       .  A
C1694      H1703   1.084       .  S
C1695      C1696   1.429       .  A
C1695      S1699   1.801       .  S
C1696      C1697   1.416       .  A
C1697      C1698   1.401       .  A
C1697      H1704   1.066       .  S
C1698      S1700   1.802       .  S
S1699      H1702   1.403       .  S
S1700      H1701   1.408       .  S
C1705      C1706   1.377       .  A
C1705      C1710   1.414       .  A
C1706      C1707   1.389       .  A
C1706      H1715   1.084       .  S
C1707      C1708   1.451       .  A
C1707      S1711   1.798       .  S
C1708      C1709   1.412       .  A
C1709      C1710   1.406       .  A
C1709      H1716   1.076       .  S
C1710      S1712   1.801       .  S
S1711      H1714   1.408       .  S
S1712      H1713   1.407       .  S
C1717      C1718   1.435       .  A
C1717      C1722   1.409       .  A
C1718      C1719   1.405       .  A
C1718      H1727   1.081       .  S
C1719      C1720   1.406       .  A
C1719      S1723   1.804       .  S
C1720      C1721   1.418       .  A
C1721      C1722   1.419       .  A
C1721      H1728   1.083       .  S
C1722      S1724   1.805       .  S
S1723      H1726   1.406       .  S
S1724      H1725   1.404       .  S
C1729      C1730   1.414       .  A
C1729      C1734   1.410       .  A
C1730      C1731   1.412       .  A
C1730      H1739   1.082       .  S
C1731      C1732   1.407       .  A
C1731      S1735   1.807       .  S
C1732      C1733   1.428       .  A
C1733      C1734   1.405       .  A
C1733      H1740   1.083       .  S
C1734      S1736   1.804       .  S
S1735      H1738   1.402       .  S
S1736      H1737   1.406       .  S
C1741      C1742   1.401       .  A
C1741      C1746   1.413       .  A
C1742      C1743   1.397       .  A
C1742      H1751   1.082       .  S
C1743      C1744   1.431   1_545  A
C1743      S1747   1.812   1_545  S
C1744      C1745   1.416   1_565  A
C1745      C1746   1.402       .  A
C1745      H1752   1.057       .  S
C1746      S1748   1.814       .  S
S1747      H1750   1.407   1_565  S
S1748      H1749   1.406       .  S
C1753      C1754   1.424       .  A
C1753      C1758   1.419       .  A
C1754      C1755   1.404       .  A
C1754      H1763   1.081       .  S
C1755      C1756   1.421       .  A
C1755      S1759   1.803       .  S
C1756      C1757   1.408       .  A
C1757      C1758   1.401       .  A
C1757      H1764   1.084       .  S
C1758      S1760   1.805       .  S
S1759      H1762   1.408       .  S
S1760      H1761   1.402       .  S
C1765      C1766   1.419       .  A
C1765      C1770   1.446       .  A
C1766      C1767   1.428       .  A
C1766      H1775   1.073       .  S
C1767      C1768   1.442       .  A
C1767      S1771   1.813       .  S
C1768      C1769   1.416       .  A
C1769      C1770   1.417       .  A
C1769      H1776   1.072       .  S
C1770      S1772   1.812       .  S
S1771      H1774   1.395       .  S
S1772      H1773   1.409       .  S
C1777      C1778   1.434       .  A
C1777      C1782   1.426       .  A
C1778      C1779   1.376       .  A
C1778      H1787   1.081       .  S
C1779      C1780   1.385       .  A
C1779      S1783   1.806       .  S
C1780      C1781   1.409       .  A
C1781      C1782   1.412       .  A
C1781      H1788   1.084       .  S
C1782      S1784   1.798       .  S
S1783      H1786   1.405       .  S
S1784      H1785   1.402       .  S
C1789      C1790   1.399       .  A
C1789      C1794   1.442       .  A
C1790      C1791   1.415       .  A
C1790      H1799   1.075       .  S
C1791      C1792   1.427       .  A
C1791      S1795   1.803       .  S
C1792      C1793   1.399       .  A
C1793      C1794   1.410       .  A
C1793      H1800   1.083       .  S
C1794      S1796   1.811       .  S
S1795      H1798   1.407       .  S
S1796      H1797   1.407       .  S
C1801      C1802   1.410   1_565  A
C1801      C1806   1.457       .  A
C1802      C1803   1.418       .  A
C1802      H1811   1.082       .  S
C1803      C1804   1.431       .  A
C1803      S1807   1.800       .  S
C1804      C1805   1.381   1_545  A
C1805      C1806   1.389       .  A
C1805      H1812   1.083   1_455  S
C1806      S1808   1.815   1_455  S
S1807      H1810   1.407       .  S
S1808      H1809   1.407       .  S
C1813      C1814   1.420   1_545  A
C1813      C1818   1.439       .  A
C1814      C1815   1.409       .  A
C1814      H1823   1.067       .  S
C1815      C1816   1.413       .  A
C1815      S1819   1.809       .  S
C1816      C1817   1.404   1_565  A
C1817      C1818   1.398       .  A
C1817      H1824   1.083       .  S
C1818      S1820   1.810       .  S
S1819      H1822   1.406       .  S
S1820      H1821   1.396   1_655  S
C1825      C1826   1.405       .  A
C1825      C1830   1.449       .  A
C1826      C1827   1.414       .  A
C1826      H1835   1.082       .  S
C1827      C1828   1.420       .  A
C1827      S1831   1.801   1_455  S
C1828      C1829   1.395       .  A
C1829      C1830   1.402       .  A
C1829      H1836   1.085       .  S
C1830      S1832   1.815       .  S
S1831      H1834   1.407       .  S
S1832      H1833   1.387       .  S
C1837      C1838   1.418       .  A
C1837      C1842   1.437       .  A
C1838      C1839   1.427       .  A
C1838      H1847   1.076       .  S
C1839      C1840   1.453       .  A
C1839      S1843   1.811   1_455  S
C1840      C1841   1.422       .  A
C1841      C1842   1.437       .  A
C1841      H1848   1.069   1_545  S
C1842      S1844   1.805       .  S
S1843      H1846   1.408   1_655  S
S1844      H1845   1.407       .  S
C1849      C1850   1.404       .  A
C1849      C1854   1.439       .  A
C1850      C1851   1.409       .  A
C1850      H1859   1.083       .  S
C1851      C1852   1.417       .  A
C1851      S1855   1.796       .  S
C1852      C1853   1.396       .  A
C1853      C1854   1.391       .  A
C1853      H1860   1.083       .  S
C1854      S1856   1.810       .  S
S1855      H1858   1.408       .  S
S1856      H1857   1.408       .  S
C1861      C1862   1.409       .  A
C1861      C1866   1.451       .  A
C1862      C1863   1.409       .  A
C1862      H1871   1.079       .  S
C1863      C1864   1.430       .  A
C1863      S1867   1.801       .  S
C1864      C1865   1.383       .  A
C1865      C1866   1.392       .  A
C1865      H1872   1.083       .  S
C1866      S1868   1.807       .  S
S1867      H1870   1.408       .  S
S1868      H1869   1.408       .  S
C1873      C1874   1.427       .  A
C1873      C1878   1.435       .  A
C1874      C1875   1.405       .  A
C1874      H1883   1.063       .  S
C1875      C1876   1.404       .  A
C1875      S1879   1.806       .  S
C1876      C1877   1.402       .  A
C1877      C1878   1.408       .  A
C1877      H1884   1.084       .  S
C1878      S1880   1.802       .  S
S1879      H1882   1.405       .  S
S1880      H1881   1.401       .  S
C1885      C1886   1.413       .  A
C1885      C1890   1.441       .  A
C1886      C1887   1.418       .  A
C1886      H1895   1.065       .  S
C1887      C1888   1.433       .  A
C1887      S1891   1.804       .  S
C1888      C1889   1.421       .  A
C1889      C1890   1.430       .  A
C1889      H1896   1.079       .  S
C1890      S1892   1.808       .  S
S1891      H1894   1.407       .  S
S1892      H1893   1.407       .  S
C1897      C1898   1.405       .  A
C1897      C1902   1.441   1_545  A
C1898      C1899   1.419       .  A
C1898      H1907   1.068       .  S
C1899      C1900   1.420       .  A
C1899      S1903   1.806   1_554  S
C1900      C1901   1.400   1_545  A
C1901      C1902   1.412       .  A
C1901      H1908   1.083       .  S
C1902      S1904   1.812       .  S
S1903      H1906   1.406       .  S
S1904      H1905   1.407       .  S
C1909      C1910   1.426   1_545  A
C1909      C1914   1.420       .  A
C1910      C1911   1.394       .  A
C1910      H1919   1.083       .  S
C1911      C1912   1.413       .  A
C1911      S1915   1.803       .  S
C1912      C1913   1.412   1_565  A
C1913      C1914   1.400       .  A
C1913      H1920   1.083       .  S
C1914      S1916   1.806       .  S
S1915      H1918   1.408       .  S
S1916      H1917   1.400       .  S
C1921      C1922   1.380   1_554  A
C1921      C1926   1.426       .  A
C1922      C1923   1.385       .  A
C1922      H1931   1.085       .  S
C1923      C1924   1.461   1_556  A
C1923      S1927   1.821       .  S
C1924      C1925   1.414       .  A
C1925      C1926   1.419       .  A
C1925      H1932   1.081       .  S
C1926      S1928   1.801       .  S
S1927      H1930   1.371       .  S
S1928      H1929   1.408       .  S
C1933      C1934   1.417       .  A
C1933      C1938   1.454       .  A
C1934      C1935   1.434       .  A
C1934      H1943   1.075       .  S
C1935      C1936   1.440       .  A
C1935      S1939   1.806       .  S
C1936      C1937   1.409       .  A
C1937      C1938   1.423       .  A
C1937      H1944   1.075       .  S
C1938      S1940   1.814   1_554  S
S1939      H1942   1.407       .  S
S1940      H1941   1.408       .  S
