geometry optimzed in LAMMPS
_audit_creation_date              2020-11-30 
_audit_creation_method            'lammps2cif' 
_symmetry_space_group_name_H-M    'P1' 
_symmetry_Int_Tables_number       1 
_symmetry_cell_setting            triclinic 
loop_ 
_symmetry_equiv_pos_as_xyz 
  x,y,z 
_cell_length_a                    36.84106405465633 
_cell_length_b                    35.84705676708884 
_cell_length_c                    36.08741061608483 
_cell_angle_alpha                 90.99061602806337 
_cell_angle_beta                  91.20148284638522 
_cell_angle_gamma                 91.18287899287839 
loop_ 
_atom_site_label 
_atom_site_type_symbol 
_atom_site_fract_x 
_atom_site_fract_y 
_atom_site_fract_z 
_atom_site_charge 
C1          C  0.73813413  0.00326410  0.02964713    -0.01820
C2          C  0.73404542  0.69238296  0.72655609    -0.01820
C3          C  0.00752361  0.98991319  0.71337921    -0.01820
C4          C  0.21381534  0.18991389  0.71742806    -0.01820
Zr5        Zr  0.51989538  0.26097973  0.78838613     2.17510
O6          O  0.52258958  0.30357096  0.84166323    -0.50660
O7          O  0.52877358  0.32451580  0.76318950    -0.73860
O8          O  0.58242739  0.27364739  0.78456924    -0.80650
O9          O  0.47257933  0.19342143  0.84824077    -0.82390
O10         O  0.58085836  0.27859555  0.72224358    -0.78020
O11         O  0.52515552  0.22830346  0.84620889    -0.89650
O12         O  0.48773822  0.32727227  0.71627888    -0.75620
O13         O  0.50638170  0.27453277  0.72663684    -0.85110
O14         O  0.45432337  0.26330002  0.78579098    -0.84800
O15         O  0.55199527  0.21428141  0.75187507    -0.71550
O16         O  0.49782149  0.19893101  0.79456435    -0.83690
Zr17       Zr  0.45193625  0.16889396  0.69235403     2.26420
Zr18       Zr  0.53700078  0.23274008  0.69083715     2.06270
Zr19       Zr  0.43373689  0.19931166  0.79164875     2.10050
Zr20       Zr  0.44299582  0.27753422  0.72271276     1.78760
O21         O  0.40580439  0.15264577  0.83094879    -0.92490
O22         O  0.42899298  0.31867982  0.67203716    -0.40300
O23         O  0.41992992  0.21515463  0.72883157    -0.76930
O24         O  0.47922443  0.22383187  0.71387785    -0.95620
O25         O  0.51680774  0.16871642  0.69560242    -0.88920
O26         O  0.46124000  0.15341528  0.75577177    -0.91770
C27         C  0.51595434  0.34023688  0.73393603     1.01990
C28         C  0.50336394  0.20570239  0.86231620     1.14920
C29         C  0.59738572  0.28214473  0.75442107     1.05700
O30         O  0.55879392  0.26315118  0.63566089    -0.93920
O31         O  0.49107550  0.25389245  0.64606263    -0.89670
O32         O  0.44301142  0.21289487  0.64289147    -0.82810
C33         C  0.46084909  0.24148828  0.63153141     1.12340
O34         O  0.58103926  0.14912686  0.79780643    -0.95900
Zr35       Zr  0.52605592  0.15228496  0.75940101     1.88940
O36         O  0.44621696  0.10380046  0.71159705    -0.72540
O37         O  0.57654906  0.18461091  0.66687667    -0.51810
O38         O  0.57211285  0.11283226  0.73247590    -0.96480
O39         O  0.50914670  0.13083439  0.82048527    -0.53700
O40         O  0.50030185  0.09263442  0.73861339    -0.73060
C41         C  0.46716254  0.08340397  0.73133651     0.99280
O42         O  0.45988975  0.13386673  0.63465977    -0.61880
O43         O  0.39132035  0.23494263  0.82862094    -0.56680
O44         O  0.38968600  0.15654292  0.69237568    -0.93370
O45         O  0.38163615  0.17198147  0.75320919    -0.91790
O46         O  0.40740175  0.31603416  0.76431199    -0.92150
O47         O  0.39699040  0.26058816  0.67551299    -0.90930
C48         C  0.36981097  0.16211092  0.71996283     1.18130
H49         H  0.44551671  0.28031497  0.80440099     0.34070
H50         H  0.48431035  0.21644296  0.73849482     0.44920
H51         H  0.44868582  0.13321545  0.76761337     0.38450
H52         H  0.57786587  0.21274464  0.75617278     0.34930
H53         H  0.42719986  0.34402977  0.68299087     0.26720
H54         H  0.58629579  0.19432229  0.64351469     0.32650
H55         H  0.59188970  0.13025301  0.72543630     0.38560
H56         H  0.40055933  0.33782862  0.74940364     0.33020
H57         H  0.36821981  0.22036030  0.82670253     0.31900
H58         H  0.40056861  0.13079287  0.81440431     0.33580
H59         H  0.52733958  0.11273976  0.82821951     0.32550
H60         H  0.37611105  0.27671755  0.68036472     0.36550
H61         H  0.44966389  0.14903155  0.61446711     0.29280
H62         H  0.50738211  0.32478812  0.83436501     0.33510
H63         H  0.58390421  0.12233282  0.80309573     0.36360
H64         H  0.38637619  0.25790985  0.81477796     0.28970
H65         H  0.48639535  0.13419199  0.63078030     0.41850
H66         H  0.56674129  0.28840208  0.64441106     0.31900
H67         H  0.45078823  0.31948564  0.65667278     0.39520
H68         H  0.48633293  0.11605594  0.81701838     0.31370
H69         H  0.59765466  0.18476815  0.68431341     0.31430
H70         H  0.54771567  0.31390971  0.84223092     0.31700
C71         C  0.52069893  0.48469619  0.71600043    -0.01820
C72         C  0.50721051  0.19813858  0.02458065    -0.01820
Zr73       Zr  0.81487627  0.77586827  0.95173159     2.17510
O74         O  0.85294283  0.80955473  0.90865488    -0.50660
O75         O  0.87893299  0.76192632  0.97817249    -0.73860
O76         O  0.80665576  0.84460788  0.97243899    -0.80650
O77         O  0.80465787  0.69163318  0.89250695    -0.82390
O78         O  0.81075962  0.83452109  0.03208851    -0.78020
O79         O  0.79485582  0.75158218  0.88607835    -0.89650
O80         O  0.87613221  0.70156839  0.99310384    -0.75620
O81         O  0.81987448  0.76532833  0.01740534    -0.85110
O82         O  0.81800469  0.70969474  0.96092305    -0.84800
O83         O  0.75875470  0.79833329  0.97801744    -0.71550
O84         O  0.75932749  0.74464094  0.92903339    -0.83690
Zr85       Zr  0.71555746  0.69371014  0.03165793     2.26420
Zr86       Zr  0.76463819  0.78869643  0.04270471     2.06270
Zr87       Zr  0.76325135  0.67863382  0.93974153     2.10050
Zr88       Zr  0.82298086  0.69903495  0.02551623     1.78760
O89         O  0.72429200  0.66195531  0.88647786    -0.92490
O90         O  0.86116104  0.71749800  0.07858606    -0.40300
O91         O  0.76901105  0.66959409  0.00475006    -0.76930
O92         O  0.77168879  0.72332695  0.05281771    -0.95620
O93         O  0.71006981  0.75898885  0.02080590    -0.88920
O94         O  0.70942344  0.70230112  0.96571020    -0.91770
C95         C  0.89388376  0.73142637  0.99018591     1.01990
C96         C  0.79401854  0.71746102  0.87235827     1.14920
C97         C  0.80281287  0.85667885  0.00649987     1.05700
O98         O  0.77517993  0.82962140  0.09653757    -0.93920
O99         O  0.75306508  0.77253927  0.10379096    -0.89670
O100        O  0.72416862  0.71589318  0.09833135    -0.82810
C101        C  0.73966007  0.74336892  0.11766562     1.12340
O102        O  0.70753817  0.81812120  0.91123558    -0.95900
Zr103      Zr  0.70569128  0.76781321  0.95540956     1.88940
O104        O  0.65355632  0.70478436  0.00492183    -0.72540
O105        O  0.71344682  0.83063617  0.04083257    -0.51810
O106        O  0.67138895  0.82419721  0.96740352    -0.96480
O107        O  0.67092181  0.73980829  0.90333347    -0.53700
O108        O  0.65200259  0.76423425  0.98821206    -0.73060
C109        C  0.63684167  0.73272805  0.99043457     0.99280
O110        O  0.67632357  0.65544095  0.06978105    -0.61880
O111        O  0.80045193  0.62405018  0.92947887    -0.56680
O112        O  0.73335912  0.62705465  0.01711128    -0.93370
O113        O  0.72772618  0.62506061  0.95598811    -0.91790
O114        O  0.83703685  0.63509153  0.00840149    -0.92150
O115        O  0.83416338  0.66290021  0.08115913    -0.90930
C116        C  0.73625717  0.60894743  0.98575263     1.18130
H117        H  0.83724652  0.69958064  0.94638950     0.34070
H118        H  0.78086075  0.71714563  0.07699398     0.44920
H119        H  0.68929052  0.68827973  0.95444373     0.38450
H120        H  0.75096743  0.82302535  0.97276224     0.34930
H121        H  0.88612858  0.71082886  0.07188937     0.26720
H122        H  0.69574676  0.81990399  0.05818955     0.32650
H123        H  0.68898684  0.84339031  0.97689884     0.38560
H124        H  0.86230911  0.63160259  0.01735396     0.33020
H125        H  0.79617461  0.61687725  0.90311548     0.31900
H126        H  0.73644551  0.64082812  0.87427247     0.33580
H127        H  0.68644285  0.71993533  0.89359429     0.32550
H128        H  0.81311543  0.66689705  0.09728612     0.36550
H129        H  0.66733718  0.63501963  0.05296499     0.29280
H130        H  0.86962541  0.82503381  0.92469915     0.33510
H131        H  0.68329272  0.81856338  0.89897483     0.36360
H132        H  0.82597450  0.63322011  0.93083823     0.28970
H133        H  0.69314871  0.64314609  0.08725935     0.41850
H134        H  0.80142620  0.82810026  0.10239734     0.31900
H135        H  0.86072944  0.74498921  0.07850674     0.39520
H136        H  0.65039180  0.72601062  0.91431235     0.31370
H137        H  0.72225571  0.85388018  0.05350973     0.31430
H138        H  0.83651337  0.82768918  0.89700526     0.31700
C139        C  0.86657883  0.35385006  0.87369576    -0.01820
C140        C  0.97455899  0.42574688  0.75588440    -0.01820
C141        C  0.77637950  0.45849402  0.98318724    -0.01820
C142        C  0.22035856  0.99827204  0.51891912    -0.01820
C143        C  0.10814469  0.09357601  0.61207755    -0.01820
C144        C  0.04220079  0.71070425  0.03136507    -0.01820
C145        C  0.23140266  0.47840619  0.02974280    -0.01820
C146        C  0.21864626  0.69598717  0.23570109    -0.01820
C147        C  0.12743590  0.58426489  0.12536908    -0.01820
C148        C  0.51882759  0.69146634  0.52366132    -0.01820
Zr149      Zr  0.29399030  0.76908599  0.45997999     2.17510
O150        O  0.34269760  0.79606899  0.42394680    -0.50660
O151        O  0.28685979  0.83857234  0.47091226    -0.73860
O152        O  0.27227257  0.75189637  0.39422056    -0.80650
O153        O  0.35498164  0.75377918  0.54941918    -0.82390
O154        O  0.21468028  0.76058646  0.40467638    -0.78020
O155        O  0.35232457  0.74103780  0.48842464    -0.89650
O156        O  0.22935760  0.82671264  0.46798456    -0.75620
O157        O  0.22895194  0.77638480  0.46274951    -0.85110
O158        O  0.27968788  0.79156166  0.52132569    -0.84800
O159        O  0.26416115  0.70833379  0.44840771    -0.71550
O160        O  0.30566749  0.72149397  0.50227961    -0.83690
Zr161      Zr  0.19780435  0.68709763  0.54989395     2.26420
Zr162      Zr  0.19914085  0.71749842  0.45064786     2.06270
Zr163      Zr  0.29220508  0.74285177  0.56265150     2.10050
Zr164      Zr  0.21473339  0.79744383  0.52338998     1.78760
O165        O  0.32644629  0.70063290  0.60135547    -0.92490
O166        O  0.15931452  0.83053371  0.50792661    -0.40300
O167        O  0.22770069  0.74652478  0.55932489    -0.76930
O168        O  0.18476558  0.74033097  0.51097029    -0.95620
O169        O  0.21642022  0.66755027  0.48964373    -0.88920
O170        O  0.26390236  0.68238590  0.55273367    -0.91770
C171        C  0.25432630  0.85033065  0.47387872     1.01990
C172        C  0.36869992  0.73851811  0.52111625     1.14920
C173        C  0.23852011  0.74894492  0.38324733     1.05700
O174        O  0.14689223  0.74582877  0.42114587    -0.93920
O175        O  0.14512400  0.68508720  0.46936038    -0.89670
O176        O  0.13435515  0.70022932  0.52742480    -0.82810
C177        C  0.12443424  0.69985742  0.49275448     1.12340
O178        O  0.32603340  0.61934372  0.46672033    -0.95900
Zr179      Zr  0.28103617  0.66153867  0.49197762     1.88940
O180        O  0.19994419  0.62098923  0.52499150    -0.72540
O181        O  0.18941785  0.66875224  0.40356461    -0.51810
O182        O  0.26294738  0.62910265  0.43390330    -0.96480
O183        O  0.33877055  0.64788458  0.52234293    -0.53700
O184        O  0.25745636  0.62104424  0.53632090    -0.73060
C185        C  0.23030723  0.60410106  0.52325952     0.99280
O186        O  0.15793752  0.66051963  0.59591812    -0.61880
O187        O  0.31288311  0.79122967  0.60713775    -0.56680
O188        O  0.22204920  0.69863425  0.61515465    -0.93370
O189        O  0.24227593  0.75409939  0.60098484    -0.91790
O190        O  0.24731490  0.83007058  0.57389781    -0.92150
O191        O  0.17370869  0.82447615  0.56822076    -0.90930
C192        C  0.23892642  0.72937595  0.62493840     1.18130
H193        H  0.29418939  0.81288769  0.52949728     0.34070
H194        H  0.16164966  0.75197807  0.51066344     0.44920
H195        H  0.27211305  0.66825928  0.57377067     0.38450
H196        H  0.27058836  0.69732019  0.42516812     0.34930
H197        H  0.16540020  0.85750427  0.50944804     0.26720
H198        H  0.17737344  0.68051459  0.38214431     0.32650
H199        H  0.27277551  0.60368464  0.43292303     0.38560
H200        H  0.23250738  0.85152502  0.58116898     0.33020
H201        H  0.32945500  0.77905491  0.62488190     0.31900
H202        H  0.33572551  0.71589630  0.62265371     0.33580
H203        H  0.33392495  0.62540323  0.53716609     0.32550
H204        H  0.17572545  0.80822599  0.59006798     0.36550
H205        H  0.14206986  0.68130624  0.60303342     0.29280
H206        H  0.33022221  0.80818119  0.40293132     0.33510
H207        H  0.32025891  0.59423156  0.47621871     0.36360
H208        H  0.32886696  0.80805716  0.59300708     0.28970
H209        H  0.14174159  0.64285712  0.58169663     0.41850
H210        H  0.14437046  0.76996765  0.43450313     0.31900
H211        H  0.15479403  0.82524086  0.48119762     0.39520
H212        H  0.34197480  0.66786909  0.54133659     0.31370
H213        H  0.21365130  0.66144610  0.39537514     0.31430
H214        H  0.35488802  0.77433536  0.41286625     0.31700
Zr215      Zr  0.30034146  0.40801267  0.79636463     2.17510
O216        O  0.34122564  0.37314420  0.83619781    -0.50660
O217        O  0.36380994  0.43236327  0.77619610    -0.73860
O218        O  0.29162963  0.34061229  0.77547500    -0.80650
O219        O  0.22903573  0.44401385  0.85381465    -0.82390
O220        O  0.29567447  0.35345539  0.71669454    -0.78020
O221        O  0.28444604  0.42435272  0.86452594    -0.89650
O222        O  0.34915697  0.44200176  0.71824022    -0.75620
O223        O  0.30556062  0.42351048  0.73222510    -0.85110
O224        O  0.30190155  0.47551340  0.79596833    -0.84800
O225        O  0.24392374  0.38804758  0.76320555    -0.71550
O226        O  0.24141790  0.42971542  0.80994605    -0.83690
Zr227      Zr  0.20284714  0.49162763  0.71318005     2.26420
Zr228      Zr  0.25293737  0.40003009  0.69948227     2.06270
Zr229      Zr  0.24205523  0.49462337  0.81424376     2.10050
Zr230      Zr  0.30902229  0.49024252  0.73156610     1.78760
O231        O  0.19351852  0.52004539  0.85123895    -0.92490
O232        O  0.34673812  0.51320793  0.68173702    -0.40300
O233        O  0.25264721  0.50877250  0.75187574    -0.76930
O234        O  0.26037543  0.46675981  0.69453019    -0.95620
O235        O  0.19659414  0.42513863  0.71644659    -0.88920
O236        O  0.18995523  0.47778761  0.77680642    -0.91770
C237        C  0.37348553  0.44224957  0.74304345     1.01990
C238        C  0.25374379  0.43672794  0.87713746     1.14920
C239        C  0.28603482  0.33062700  0.74114173     1.05700
O240        O  0.27638247  0.36603884  0.64674745    -0.93920
O241        O  0.24473741  0.41978100  0.63845029    -0.89670
O242        O  0.21409376  0.47372283  0.64572725    -0.82810
C243        C  0.23016876  0.44848647  0.62531959     1.12340
O244        O  0.18031056  0.36944991  0.83227213    -0.95900
Zr245      Zr  0.18697548  0.41108821  0.77986680     1.88940
O246        O  0.13720886  0.47526249  0.72608852    -0.72540
O247        O  0.20165839  0.35709178  0.68792117    -0.51810
O248        O  0.15744835  0.35101554  0.76615777    -0.96480
O249        O  0.14581604  0.43152707  0.82768138    -0.53700
O250        O  0.14758967  0.41538542  0.72795496    -0.73060
C251        C  0.12537267  0.44140462  0.73000305     0.99280
O252        O  0.17082078  0.53880915  0.67861799    -0.61880
O253        O  0.27732149  0.52228011  0.86582086    -0.56680
O254        O  0.22562824  0.55534128  0.73917486    -0.93370
O255        O  0.23884865  0.55836650  0.80109600    -0.91790
O256        O  0.34895166  0.53054518  0.76973901    -0.92150
O257        O  0.29747690  0.54614200  0.69586403    -0.90930
C258        C  0.23630753  0.57349156  0.76973541     1.18130
H259        H  0.32122404  0.48525993  0.81203842     0.34070
H260        H  0.27036658  0.47522109  0.67162695     0.44920
H261        H  0.16889100  0.49083981  0.78503543     0.38450
H262        H  0.23606967  0.36301959  0.76624224     0.34930
H263        H  0.37118186  0.51774996  0.69298314     0.26720
H264        H  0.21071382  0.33781926  0.67067422     0.32650
H265        H  0.13119075  0.35531790  0.76912765     0.38560
H266        H  0.35369375  0.55264458  0.75434876     0.33020
H267        H  0.26925947  0.54838171  0.86786683     0.31900
H268        H  0.20210314  0.51781589  0.87727238     0.33580
H269        H  0.12138118  0.42215512  0.81997035     0.32550
H270        H  0.27337329  0.54197072  0.68368429     0.36550
H271        H  0.18696430  0.54508677  0.65793828     0.29280
H272        H  0.34398051  0.34855917  0.82378652     0.33510
H273        H  0.15426184  0.36256691  0.83431002     0.36360
H274        H  0.30266984  0.52414133  0.85760583     0.28970
H275        H  0.14989405  0.52515457  0.66686345     0.41850
H276        H  0.30308034  0.36888073  0.64956775     0.31900
H277        H  0.34937219  0.49174766  0.66444678     0.39520
H278        H  0.14486084  0.45896000  0.82887598     0.31370
H279        H  0.19806701  0.34397758  0.71138751     0.31430
H280        H  0.32717540  0.36780205  0.85860778     0.31700
Zr281      Zr  0.04730382  0.66937343  0.70414400     2.17510
O282        O  0.08764843  0.63718755  0.66234175    -0.50660
O283        O  0.03665911  0.60222193  0.72243771    -0.73860
O284        O  0.11074029  0.68816023  0.72611921    -0.80650
O285        O  0.97113286  0.66710346  0.63578713    -0.82390
O286        O  0.10587469  0.73185680  0.77206238    -0.78020
O287        O  0.02914113  0.68514234  0.63831439    -0.89650
O288        O  0.02918141  0.60458821  0.78324238    -0.75620
O289        O  0.04139024  0.67012761  0.76996448    -0.85110
O290        O  0.98693416  0.64561412  0.71543267    -0.84800
O291        O  0.05321603  0.73433057  0.72243643    -0.71550
O292        O  0.00490118  0.71368296  0.68212188    -0.83690
Zr293      Zr  0.95049742  0.75597150  0.78538370     2.26420
Zr294      Zr  0.04699218  0.73446190  0.78836108     2.06270
Zr295      Zr  0.94595998  0.69041760  0.69314898     2.10050
Zr296      Zr  0.98128867  0.64627526  0.78168204     1.78760
O297        O  0.90603554  0.72557214  0.65260475    -0.92490
O298        O  0.98961899  0.63062235  0.84720246    -0.40300
O299        O  0.94517963  0.69347184  0.75922954    -0.76930
O300        O  0.99011567  0.70743201  0.80278275    -0.95620
O301        O  0.00743510  0.78066320  0.76646315    -0.88920
O302        O  0.95015719  0.75316718  0.71743099    -0.91770
C303        C  0.02977401  0.58590343  0.75357191     1.01990
C304        C  0.99811810  0.68291389  0.62043948     1.14920
C305        C  0.12387456  0.71243825  0.75034745     1.05700
O306        O  0.09564236  0.72131847  0.83274065    -0.93920
O307        O  0.03625986  0.73923150  0.85183962    -0.89670
O308        O  0.97571765  0.75025730  0.85377896    -0.82810
C309        C  0.00729494  0.74176308  0.86966951     1.12340
O310        O  0.03485846  0.81697380  0.65313111    -0.95900
Zr311      Zr  0.00861323  0.77674103  0.70003137     1.88940
O312        O  0.96663487  0.82424199  0.77233461    -0.72540
O313        O  0.06334165  0.79952892  0.79945836    -0.51810
O314        O  0.06125319  0.81529990  0.71984342    -0.96480
O315        O  0.98145879  0.78192210  0.63837366    -0.53700
O316        O  0.96017325  0.81583670  0.71300731    -0.73060
C317        C  0.96733250  0.83767501  0.73926155     0.99280
O318        O  0.90349265  0.78095352  0.82474049    -0.61880
O319        O  0.90635535  0.64078709  0.66732910    -0.56680
O320        O  0.88910460  0.73600521  0.75811693    -0.93370
O321        O  0.90351216  0.67910159  0.74006751    -0.91790
O322        O  0.94269651  0.59837216  0.75077325    -0.92150
O323        O  0.92904133  0.63578104  0.82087646    -0.90930
C324        C  0.88007522  0.70411104  0.74239314     1.18130
H325        H  0.98075216  0.62240408  0.70256267     0.34070
H326        H  0.98695448  0.69773250  0.82681839     0.44920
H327        H  0.92856180  0.76407537  0.70699287     0.38450
H328        H  0.07565912  0.74499388  0.71378851     0.34930
H329        H  0.01457937  0.62144272  0.85008522     0.26720
H330        H  0.06641576  0.80198068  0.82672185     0.32650
H331        H  0.05710307  0.84128207  0.71249499     0.38560
H332        H  0.92593675  0.58871381  0.76954086     0.33020
H333        H  0.88170361  0.65119919  0.66653972     0.31900
H334        H  0.89962657  0.70846836  0.63157918     0.31820
H335        H  0.96560580  0.80384803  0.63961116     0.32550
H336        H  0.91862427  0.66080326  0.82444906     0.36550
H337        H  0.88732763  0.79471428  0.80776057     0.29280
H338        H  0.10050087  0.61924983  0.67820238     0.33510
H339        H  0.02259459  0.84119702  0.65573866     0.36360
H340        H  0.90553205  0.62156009  0.68665086     0.28970
H341        H  0.88887281  0.75888787  0.83204428     0.41850
H342        H  0.10539090  0.74581377  0.84196796     0.31900
H343        H  0.98826193  0.65280292  0.86369636     0.39520
H344        H  0.96417200  0.76051824  0.63630140     0.31370
H345        H  0.08829662  0.80234971  0.79008294     0.31430
H346        H  0.10641625  0.65617071  0.65636968     0.31700
C347        C  0.27315542  0.73677804  0.77186704    -0.01820
Zr348      Zr  0.45706554  0.76053766  0.29873441     2.17510
O349        O  0.42016375  0.80201806  0.33565610    -0.50660
O350        O  0.47786328  0.74494704  0.36401390    -0.73860
O351        O  0.39275854  0.73388201  0.28952981    -0.80650
O352        O  0.53473313  0.83246017  0.28157040    -0.82390
O353        O  0.39253200  0.67364837  0.26846692    -0.78020
O354        O  0.47476429  0.82618608  0.27566878    -0.89650
O355        O  0.48404580  0.68637033  0.34901699    -0.75620
O356        O  0.47181032  0.69616919  0.30662198    -0.85110
O357        O  0.52196779  0.75764158  0.30691034    -0.84800
O358        O  0.43739278  0.72581312  0.24321293    -0.71550
O359        O  0.48381235  0.78347586  0.24350149    -0.83690
Zr360      Zr  0.54039991  0.67712183  0.20103766     2.26420
Zr361      Zr  0.45240326  0.66191360  0.25435566     2.06270
Zr362      Zr  0.54767380  0.77678928  0.24981032     2.10050
Zr363      Zr  0.53597885  0.69224232  0.31321389     1.78760
O364        O  0.56787951  0.80810018  0.19444506    -0.92490
O365        O  0.55944451  0.65049969  0.36043004    -0.40300
O366        O  0.54704141  0.71293191  0.25491199    -0.76930
O367        O  0.51674657  0.65684770  0.26002196    -0.95620
O368        O  0.47513394  0.68419400  0.19703944    -0.88920
O369        O  0.52788074  0.74343889  0.19402033    -0.91770
C370        C  0.48630580  0.71150476  0.37350767     1.01990
C371        C  0.50489835  0.84619196  0.27260922     1.14920
C372        C  0.37640183  0.70300311  0.27722783     1.05700
O373        O  0.45676485  0.62608549  0.31061375    -0.93920
O374        O  0.46497204  0.62220248  0.20400099    -0.89670
O375        O  0.52231633  0.60911530  0.20951193    -0.82810
C376        C  0.48871662  0.59902260  0.21277138     1.12340
O377        O  0.41050377  0.78796107  0.20300975    -0.95900
Zr378      Zr  0.46325305  0.75000411  0.19006866     1.88940
O379        O  0.52286068  0.69361829  0.13665810    -0.72540
O380        O  0.41252134  0.60625001  0.24957217    -0.51810
O381        O  0.41037567  0.75570684  0.14901789    -0.96480
O382        O  0.48469670  0.80290746  0.15379106    -0.53700
O383        O  0.46562059  0.69803163  0.14976621    -0.73060
C384        C  0.49050913  0.70278511  0.12703467     0.99280
O385        O  0.58604430  0.64184833  0.16843511    -0.61880
O386        O  0.60427992  0.80555634  0.27465269    -0.56680
O387        O  0.60464396  0.70291814  0.21826844    -0.93370
O388        O  0.58678928  0.72956480  0.26957701    -0.91790
O389        O  0.57962721  0.73558156  0.34346827    -0.92150
O390        O  0.57940910  0.64366651  0.29878048    -0.90930
C391        C  0.61237344  0.72183403  0.24865666     1.18130
H392        H  0.53005110  0.77389569  0.32713318     0.34070
H393        H  0.52371880  0.63242078  0.26642338     0.44920
H394        H  0.53922831  0.75171712  0.17196514     0.38450
H395        H  0.41349769  0.72839658  0.23248595     0.34930
H396        H  0.56555775  0.66583377  0.38279503     0.26720
H397        H  0.39547777  0.60634683  0.27041382     0.32650
H398        H  0.41608471  0.77605386  0.13174024     0.38560
H399        H  0.58761581  0.72367095  0.36665391     0.33020
H400        H  0.59919245  0.83082104  0.28427220     0.31900
H401        H  0.58420530  0.79057180  0.18222790     0.33580
H402        H  0.47486886  0.79895029  0.12830824     0.32550
H403        H  0.58923096  0.64983277  0.27425915     0.36550
H404        H  0.59588184  0.62466697  0.18716296     0.29280
H405        H  0.40987840  0.78592299  0.35501071     0.33510
H406        H  0.42066148  0.81339095  0.20800534     0.36360
H407        H  0.60962799  0.79183201  0.29762440     0.28970
H408        H  0.57196761  0.62547372  0.15076527     0.41850
H409        H  0.43310905  0.62946913  0.32261832     0.31900
H410        H  0.53870105  0.63442098  0.36740304     0.39520
H411        H  0.51125184  0.80160109  0.15151961     0.31370
H412        H  0.39722449  0.60825378  0.22695906     0.31430
H413        H  0.39921484  0.80776629  0.31924870     0.31700
C414        C  0.37274427  0.83560079  0.88302000    -0.01820
C415        C  0.45124469  0.93691341  0.76411695    -0.01820
C416        C  0.47777168  0.73843680  0.98086756    -0.01820
C417        C  0.71691541  0.47992944  0.52040324    -0.01820
Zr418      Zr  0.68609658  0.51343134  0.20701285     2.17510
O419        O  0.64700759  0.55027316  0.16740105    -0.50660
O420        O  0.62288208  0.49662370  0.22910098    -0.73860
O421        O  0.70209395  0.49628813  0.13864494    -0.80650
O422        O  0.68817357  0.57384784  0.29080890    -0.82390
O423        O  0.70665439  0.43479449  0.14226105    -0.78020
O424        O  0.69915385  0.57954434  0.23138649    -0.89650
O425        O  0.63268336  0.43703214  0.23602216    -0.75620
O426        O  0.68610109  0.44706931  0.21599570    -0.85110
O427        O  0.67961261  0.50094767  0.27268217    -0.84800
O428        O  0.74566683  0.49191976  0.18983917    -0.71550
O429        O  0.73635730  0.54072920  0.24233660    -0.83690
Zr430      Zr  0.79053318  0.43950185  0.28988223     2.26420
Zr431      Zr  0.74367019  0.42552064  0.19597543     2.06270
Zr432      Zr  0.73025102  0.52703162  0.30659161     2.10050
Zr433      Zr  0.67988046  0.43586097  0.28093237     1.78760
O434        O  0.76462331  0.58304486  0.32614772    -0.92490
O435        O  0.65764773  0.37172698  0.27343524    -0.40300
O436        O  0.73257613  0.46092156  0.31225877    -0.76930
O437        O  0.73523177  0.41429416  0.25987027    -0.95620
O438        O  0.79572209  0.45545772  0.22591953    -0.88920
O439        O  0.78739140  0.50596739  0.28672684    -0.91770
C440        C  0.61189584  0.46410729  0.23996062     1.01990
C441        C  0.69936064  0.59382224  0.26493953     1.14920
C442        C  0.71116511  0.46413297  0.12388170     1.05700
O443        O  0.70634449  0.37059119  0.17971664    -0.93920
O444        O  0.78216298  0.37476588  0.21166712    -0.89670
O445        O  0.78117598  0.36998612  0.27242057    -0.82810
C446        C  0.77443552  0.35532225  0.23949347     1.12340
O447        O  0.78991035  0.57099778  0.17786542    -0.95900
Zr448      Zr  0.79331629  0.52247500  0.22358348     1.88940
O449        O  0.85179247  0.46288772  0.26267377    -0.72540
O450        O  0.78702519  0.41298057  0.14766775    -0.51810
O451        O  0.83523534  0.51159541  0.17392342    -0.96480
O452        O  0.81141974  0.58562622  0.24384190    -0.53700
O453        O  0.84525282  0.52406526  0.26048988    -0.73060
C454        C  0.86469461  0.49652263  0.25614992     0.99280
O455        O  0.83465387  0.40862390  0.32932014    -0.61880
O456        O  0.68812058  0.52654292  0.35772764    -0.56680
O457        O  0.77321166  0.45764971  0.35582648    -0.93370
O458        O  0.77017304  0.51932959  0.35769062    -0.91790
O459        O  0.63667849  0.45948956  0.32530842    -0.92150
O460        O  0.67478765  0.39958377  0.33708176    -0.90930
C461        C  0.76639433  0.48875481  0.37361765     1.18130
H462        H  0.65810935  0.51153359  0.28277498     0.34070
H463        H  0.72635545  0.38944545  0.26362893     0.44920
H464        H  0.80504142  0.51693966  0.30397865     0.38450
H465        H  0.75498963  0.49839792  0.16625553     0.34930
H466        H  0.63213642  0.37207197  0.28147526     0.26720
H467        H  0.77247998  0.40420249  0.12576342     0.32650
H468        H  0.85376905  0.53192760  0.17657968     0.38560
H469        H  0.61800927  0.43940358  0.32739568     0.33020
H470        H  0.66478929  0.53533917  0.34745227     0.31900
H471        H  0.79054888  0.57664431  0.32838790     0.33580
H472        H  0.83678647  0.58954825  0.23595320     0.32550
H473        H  0.69016096  0.41336416  0.35573670     0.36550
H474        H  0.84888872  0.42933746  0.34142884     0.29280
H475        H  0.63491872  0.53168325  0.15045507     0.33510
H476        H  0.81464647  0.58144326  0.17428662     0.36360
H477        H  0.68362557  0.49979659  0.36257265     0.28970
H478        H  0.82021735  0.39774044  0.34945196     0.41850
H479        H  0.68105702  0.37781640  0.18446874     0.31900
H480        H  0.65605422  0.36707385  0.24634065     0.39520
H481        H  0.81317798  0.58530897  0.27116847     0.31370
H482        H  0.79683669  0.43785418  0.14126694     0.31430
H483        H  0.66391394  0.56428735  0.15152222     0.31700
C484        C  0.71136399  0.20879950  0.22389039    -0.01820
Zr485      Zr  0.78605250  0.94171549  0.78303486     2.17510
O486        O  0.82273709  0.90601707  0.82584177    -0.50660
O487        O  0.84952355  0.95463447  0.76154932    -0.73860
O488        O  0.76838640  0.87493244  0.76134525    -0.80650
O489        O  0.75668151  0.02670678  0.85139938    -0.82390
O490        O  0.71580762  0.87383146  0.72815162    -0.78020
O491        O  0.77082160  0.96516724  0.84836848    -0.89650
O492        O  0.83613254  0.95679407  0.70215432    -0.75620
O493        O  0.78036374  0.94471910  0.71695542    -0.85110
O494        O  0.80329030  0.00529773  0.76857915    -0.84800
O495        O  0.72325304  0.92790969  0.77078471    -0.71550
O496        O  0.74317198  0.98520672  0.80099630    -0.83690
Zr497      Zr  0.68674944  0.02805842  0.70788216     2.26420
Zr498      Zr  0.71697998  0.93197660  0.70454839     2.06270
Zr499      Zr  0.75853880  0.04673478  0.78912104     2.10050
Zr500      Zr  0.79758875  0.00806132  0.70283709     1.78760
O501        O  0.74023992  0.09807048  0.82901033    -0.92490
O502        O  0.82934369  0.01526166  0.64462455    -0.40300
O503        O  0.74978261  0.04385508  0.72413841    -0.76930
O504        O  0.73757896  0.99203159  0.68735654    -0.95620
O505        O  0.67170628  0.96864354  0.73067812    -0.88920
O506        O  0.69522189  0.03190009  0.77506304    -0.91770
C507        C  0.85925672  0.96127296  0.72803458     1.01990
C508        C  0.76084508  0.99530895  0.86661292     1.14920
C509        C  0.74086260  0.85732083  0.74441429     1.05700
O510        O  0.73408729  0.88130108  0.66282156    -0.93920
O511        O  0.70221751  0.94005090  0.64192009    -0.89670
O512        O  0.69268295  0.00265710  0.64068766    -0.82810
C513        C  0.70117732  0.97053175  0.62491341     1.12340
O514        O  0.68982161  0.93610063  0.85389411    -0.95900
Zr515      Zr  0.68161938  0.97004710  0.79633827     1.88940
O516        O  0.62554241  0.99896354  0.72731266    -0.72540
O517        O  0.65148065  0.92115944  0.69705568    -0.51810
O518        O  0.64749948  0.91244536  0.78160899    -0.96480
O519        O  0.66083585  0.99695020  0.85432437    -0.53700
O520        O  0.62412045  0.99582507  0.78899496    -0.73060
C521        C  0.60853995  0.99106890  0.75797497     0.99280
O522        O  0.64997309  0.06728498  0.66818387    -0.61880
O523        O  0.81643503  0.07859278  0.80344253    -0.56680
O524        O  0.69446586  0.09549179  0.72859913    -0.93370
O525        O  0.75127435  0.08340988  0.73577855    -0.91790
O526        O  0.84117788  0.05348095  0.72941904    -0.92150
O527        O  0.78954595  0.04883553  0.64989133    -0.90930
C528        C  0.72663976  0.10687800  0.73852899     1.18130
H529        H  0.82617213  0.01299351  0.77956187     0.34070
H530        H  0.74658703  0.99392769  0.66274468     0.44920
H531        H  0.67946373  0.04996759  0.78614921     0.38450
H532        H  0.71614355  0.90572368  0.78369758     0.34930
H533        H  0.85484409  0.02177660  0.65160353     0.26720
H534        H  0.64708573  0.91296173  0.67098807     0.32650
H535        H  0.65507762  0.89430902  0.80049813     0.38560
H536        H  0.85865782  0.05823529  0.70950102     0.33020
H537        H  0.81077077  0.10539601  0.80555638     0.31900
H538        H  0.75943021  0.10085434  0.84853429     0.33580
H539        H  0.63947184  0.98213040  0.86200642     0.32550
H540        H  0.76838551  0.06426318  0.65584044     0.36550
H541        H  0.63396123  0.08078635  0.68529890     0.29280
H542        H  0.83431871  0.88697626  0.81008825     0.33510
H543        H  0.71012451  0.91904527  0.84945044     0.36360
H544        H  0.82257863  0.07126555  0.82911376     0.28970
H545        H  0.66710628  0.08662759  0.65928378     0.41850
H546        H  0.75880703  0.87419097  0.67092806     0.31900
H547        H  0.83015829  0.99022751  0.63290501     0.39520
H548        H  0.65059471  0.02123440  0.84744595     0.31370
H549        H  0.64605546  0.89859076  0.71150314     0.31430
H550        H  0.80480000  0.89198647  0.84049017     0.31700
C551        C  0.75300758  0.25767248  0.76946882    -0.01820
Zr552      Zr  0.76926631  0.24538314  0.45992938     2.17510
O553        O  0.80533505  0.27951989  0.41544359    -0.50660
O554        O  0.83153159  0.22634262  0.48253878    -0.73860
O555        O  0.76501499  0.31417036  0.47742512    -0.80650
O556        O  0.70061060  0.18972842  0.39987632    -0.82390
O557        O  0.76700209  0.30889743  0.53831737    -0.78020
O558        O  0.75217712  0.22379125  0.39372611    -0.89650
O559        O  0.83042099  0.16684685  0.50155423    -0.75620
O560        O  0.77667387  0.23585476  0.52479089    -0.85110
O561        O  0.77186375  0.17913098  0.46809851    -0.84800
O562        O  0.71446857  0.26875079  0.48747347    -0.71550
O563        O  0.71342919  0.21517568  0.44559053    -0.83690
Zr564      Zr  0.66958333  0.16654089  0.54652445     2.26420
Zr565      Zr  0.72355850  0.26094614  0.55225955     2.06270
Zr566      Zr  0.71556758  0.15024074  0.44996783     2.10050
Zr567      Zr  0.77755928  0.17017020  0.53372795     1.78760
O568        O  0.69872129  0.11742486  0.39221313    -0.92490
O569        O  0.81389952  0.20605002  0.57985218    -0.40300
O570        O  0.72166162  0.14196402  0.51532476    -0.76930
O571        O  0.72824851  0.19553996  0.56423243    -0.95620
O572        O  0.66647041  0.23207425  0.53353479    -0.88920
O573        O  0.66337185  0.17193014  0.48060696    -0.91770
C574        C  0.84736478  0.19614787  0.49378955     1.01990
C575        C  0.72390739  0.20541754  0.37966019     1.14920
C576        C  0.76165750  0.32893624  0.51031944     1.05700
O577        O  0.76324273  0.27725344  0.60498171    -0.93920
O578        O  0.68426734  0.25045148  0.60223751    -0.89670
O579        O  0.68639098  0.19056292  0.61353915    -0.82810
C580        C  0.69364468  0.22521824  0.62404975     1.12340
O581        O  0.65769320  0.28473783  0.42070334    -0.95900
Zr582      Zr  0.65998227  0.23785377  0.46837416     1.88940
O583        O  0.60476189  0.19212736  0.53008776    -0.72540
O584        O  0.68396906  0.31410482  0.55891028    -0.51810
O585        O  0.62697280  0.28860471  0.49664005    -0.96480
O586        O  0.62932393  0.22396648  0.40911593    -0.53700
O587        O  0.60825388  0.20168299  0.46978213    -0.73060
C588        C  0.58996828  0.20165126  0.49815022     0.99280
O589        O  0.63167791  0.12573453  0.58340610    -0.61880
O590        O  0.76531047  0.10814544  0.43667265    -0.56680
O591        O  0.68787263  0.09927552  0.52458595    -0.93370
O592        O  0.67447850  0.10136941  0.46507569    -0.91790
O593        O  0.80423711  0.10883636  0.52839240    -0.92150
O594        O  0.78219216  0.13024823  0.58689805    -0.90930
C595        C  0.68708972  0.08300863  0.49149702     1.18130
H596        H  0.79048867  0.16948362  0.45242338     0.34070
H597        H  0.73906967  0.19159529  0.58831753     0.44920
H598        H  0.64405996  0.15536760  0.47160972     0.38450
H599        H  0.70772615  0.29374750  0.48204395     0.34930
H600        H  0.82038245  0.18865721  0.59979806     0.26720
H601        H  0.69826858  0.33302352  0.57335499     0.32650
H602        H  0.60610766  0.29273761  0.47959046     0.38560
H603        H  0.79887841  0.10038598  0.50256056     0.33020
H604        H  0.75379352  0.08437336  0.42794022     0.31900
H605        H  0.72076971  0.11732788  0.37706363     0.33580
H606        H  0.60390421  0.23231392  0.41064515     0.32550
H607        H  0.75642386  0.12384824  0.59122585     0.36550
H608        H  0.64902238  0.10873523  0.59537269     0.29280
H609        H  0.82192235  0.29578084  0.43081033     0.33510
H610        H  0.63417340  0.29732069  0.42307557     0.36360
H611        H  0.77697131  0.11806630  0.41437804     0.28970
H612        H  0.62330493  0.14191225  0.60389679     0.41850
H613        H  0.78802047  0.27099317  0.59725343     0.31900
H614        H  0.83716871  0.21237899  0.56806256     0.39520
H615        H  0.62787801  0.19648369  0.40576950     0.31370
H616        H  0.68109735  0.32461722  0.53392620     0.31430
H617        H  0.78814468  0.29690057  0.40376841     0.31700
C618        C  0.87163207  0.84546618  0.37808583    -0.01820
C619        C  0.74997148  0.93728501  0.47027870    -0.01820
C620        C  0.98266025  0.74730505  0.47609581    -0.01820
C621        C  0.75797532  0.74052038  0.28175703    -0.01820
C622        C  0.24005250  0.46087111  0.45957873    -0.01820
Zr623      Zr  0.54048793  0.51542921  0.04131495     2.17510
O624        O  0.57862452  0.54132305  0.09166504    -0.50660
O625        O  0.53224991  0.58369961  0.03336418    -0.73860
O626        O  0.60319344  0.49768284  0.01560195    -0.80650
O627        O  0.45447867  0.47008717  0.09742776    -0.82390
O628        O  0.59789129  0.44345300  0.98284510    -0.78020
O629        O  0.51486165  0.48488062  0.09989838    -0.89650
O630        O  0.53035604  0.57178029  0.97437520    -0.75620
O631        O  0.53722168  0.51924217  0.97477951    -0.85110
O632        O  0.48015514  0.53715498  0.02323454    -0.84800
O633        O  0.54887679  0.45247458  0.02170148    -0.71550
O634        O  0.49328722  0.47378408  0.04710072    -0.83690
Zr635      Zr  0.44647225  0.42455843  0.95425840     2.26420
Zr636      Zr  0.54379907  0.45666276  0.95493377     2.06270
Zr637      Zr  0.43487482  0.49359234  0.03897440     2.10050
Zr638      Zr  0.47725612  0.53718300  0.95658628     1.78760
O639        O  0.38449107  0.47655159  0.07809385    -0.92490
O640        O  0.49766493  0.55638021  0.89573686    -0.40300
O641        O  0.43667275  0.48880104  0.97336636    -0.76930
O642        O  0.48525267  0.47596644  0.93526954    -0.95620
O643        O  0.50553132  0.40683310  0.97548111    -0.88920
O644        O  0.44400759  0.42967037  0.02147865    -0.91770
C645        C  0.52523569  0.59463538  0.00039315     1.01990
C646        C  0.48538463  0.46934066  0.11385088     1.14920
C647        C  0.61708850  0.46954362  0.99697012     1.05700
O648        O  0.57131988  0.51738003  0.94267408    -0.93920
O649        O  0.53416241  0.43306310  0.89380534    -0.89670
O650        O  0.47268368  0.42866390  0.88874408    -0.82810
C651        C  0.50505075  0.43417823  0.87461296     1.12340
O652        O  0.54226073  0.41409687  0.09769248    -0.95900
Zr653      Zr  0.50418077  0.41059404  0.04159152     1.88940
O654        O  0.46636055  0.35966159  0.97431847    -0.72540
O655        O  0.58664753  0.42883579  0.91213164    -0.51810
O656        O  0.55213485  0.37170483  0.01825610    -0.96480
O657        O  0.50202167  0.37838234  0.10041190    -0.53700
O658        O  0.45786872  0.36571360  0.03385247    -0.73060
C659        C  0.46786535  0.34587911  0.00747246     0.99280
O660        O  0.40292850  0.39138413  0.91331775    -0.61880
O661        O  0.41230102  0.55294099  0.06237394    -0.56680
O662        O  0.38161720  0.43750736  0.97349857    -0.93370
O663        O  0.39533888  0.49557099  0.98655941    -0.91790
O664        O  0.43402222  0.58399166  0.97511569    -0.92150
O665        O  0.43414020  0.55227027  0.90709548    -0.90930
C666        C  0.37176237  0.46984628  0.98602510     1.18130
H667        H  0.47326162  0.56004474  0.03465270     0.34070
H668        H  0.48351979  0.48460106  0.91022492     0.44920
H669        H  0.42349831  0.41625001  0.03122802     0.38450
H670        H  0.56925425  0.44302023  0.03565109     0.34930
H671        H  0.49280652  0.58333877  0.89396674     0.26720
H672        H  0.60894629  0.44476391  0.91352423     0.32650
H673        H  0.56111192  0.35807593  0.04012941     0.38560
H674        H  0.43431753  0.60301457  0.95555104     0.33020
H675        H  0.38716490  0.54779716  0.07028091     0.31900
H676        H  0.38869471  0.49012911  0.10197600     0.33580
H677        H  0.51211995  0.35337598  0.09560449     0.32550
H678        H  0.41566332  0.53181768  0.90732852     0.36550
H679        H  0.39761444  0.40912509  0.89328012     0.29280
H680        H  0.58821571  0.56524665  0.08217195     0.33510
H681        H  0.56713182  0.40807863  0.08992796     0.36360
H682        H  0.40907909  0.56842129  0.04018583     0.28970
H683        H  0.41712754  0.37157250  0.90129299     0.41850
H684        H  0.59761321  0.51302027  0.94005384     0.31900
H685        H  0.52443283  0.55494315  0.89714230     0.39520
H686        H  0.47602838  0.37347508  0.10430789     0.31370
H687        H  0.59374467  0.40475640  0.92292629     0.31430
H688        H  0.59988090  0.52488065  0.09219280     0.31700
C689        C  0.46432759  0.45308869  0.26908659    -0.01820
C690        C  0.34957301  0.35689542  0.36446526    -0.01820
C691        C  0.44189775  0.24694420  0.46869773    -0.01820
Zr692      Zr  0.45712579  0.01271275  0.54243425     2.17510
O693        O  0.45223244  0.06088005  0.59054479    -0.50660
O694        O  0.44462641  0.07675583  0.51835894    -0.73860
O695        O  0.46682776  0.98867926  0.60626276    -0.80650
O696        O  0.37983527  0.00041533  0.48318948    -0.82390
O697        O  0.51616100  0.95148641  0.60665409    -0.78020
O698        O  0.39404953  0.00814922  0.54464144    -0.89650
O699        O  0.48637382  0.08942022  0.47496656    -0.75620
O700        O  0.52108709  0.02089678  0.53586037    -0.85110
O701        O  0.45997755  0.02353166  0.47755447    -0.84800
O702        O  0.48039637  0.95156840  0.54698452    -0.71550
O703        O  0.42559341  0.96124314  0.50916762    -0.83690
Zr704      Zr  0.51956770  0.92395302  0.44920104     2.26420
Zr705      Zr  0.54522884  0.96015173  0.54547242     2.06270
Zr706      Zr  0.43035872  0.97434967  0.44514851     2.10050
Zr707      Zr  0.52394936  0.03500784  0.47212003     1.78760
O708        O  0.39235012  0.92646331  0.41407516    -0.92490
O709        O  0.55475766  0.08045201  0.51379171    -0.40300
O710        O  0.49340793  0.98226907  0.44497233    -0.76930
O711        O  0.55120596  0.97554764  0.48182427    -0.95620
O712        O  0.51227994  0.91464471  0.51125076    -0.88920
O713        O  0.45570654  0.91381303  0.45397805    -0.91770
C714        C  0.45737410  0.09750047  0.49222856     1.01990
C715        C  0.37171792  0.00806375  0.51747754     1.14920
C716        C  0.48649294  0.96324445  0.62146358     1.05700
O717        O  0.57371730  0.01830919  0.56739607    -0.93920
O718        O  0.59497320  0.92588152  0.51109042    -0.89670
O719        O  0.58121670  0.91401802  0.44998297    -0.82810
C720        C  0.60300839  0.91429110  0.47756870     1.12340
O721        O  0.38968442  0.90379427  0.54178473    -0.95900
Zr722      Zr  0.45070332  0.90078396  0.51780673     1.88940
O723        O  0.53634897  0.86556445  0.48159819    -0.72540
O724        O  0.59185213  0.93295807  0.58461924    -0.51810
O725        O  0.44152703  0.87365910  0.57859335    -0.96480
O726        O  0.42266171  0.84954592  0.48137750    -0.53700
O727        O  0.50026597  0.85863469  0.53123009    -0.73060
C728        C  0.52698413  0.84839732  0.51138961     0.99280
O729        O  0.51285673  0.87842655  0.39844106    -0.61880
O730        O  0.39010883  0.01067318  0.40608673    -0.56680
O731        O  0.51978060  0.96000235  0.39275664    -0.93370
O732        O  0.46608558  0.98973209  0.38858087    -0.91790
O733        O  0.53056721  0.05472016  0.40847626    -0.92150
O734        O  0.58509778  0.04233512  0.44804981    -0.90930
C735        C  0.49793634  0.98195614  0.37587737     1.18130
H736        H  0.44402552  0.04044307  0.46527801     0.34070
H737        H  0.57616061  0.97874772  0.47489894     0.44920
H738        H  0.44704720  0.89454507  0.43679307     0.38450
H739        H  0.46993564  0.93807130  0.56670847     0.34930
H740        H  0.56287015  0.10078327  0.49746002     0.26720
H741        H  0.58958233  0.94528274  0.60919729     0.32650
H742        H  0.42431052  0.85238679  0.57436334     0.38560
H743        H  0.54370234  0.07904474  0.40998290     0.33020
H744        H  0.39627274  0.00401986  0.38026753     0.31900
H745        H  0.37429940  0.91948075  0.43282297     0.33580
H746        H  0.40062597  0.86019447  0.46989741     0.32550
H747        H  0.60138015  0.04436654  0.47020983     0.36550
H748        H  0.50120078  0.89162367  0.37762287     0.29280
H749        H  0.47491612  0.05981990  0.60567005     0.33510
H750        H  0.37377112  0.90435493  0.51936701     0.36360
H751        H  0.39879533  0.03682123  0.40969321     0.28970
H752        H  0.53793364  0.87385289  0.39045478     0.41850
H753        H  0.57287552  0.01708260  0.59476286     0.31900
H754        H  0.53555454  0.09177151  0.52885160     0.39520
H755        H  0.41304152  0.83221352  0.49999226     0.31370
H756        H  0.58315769  0.90702083  0.58798949     0.31430
H757        H  0.43275286  0.05226832  0.60701069     0.31700
C758        C  0.51366479  0.00788851  0.22702470    -0.01820
C759        C  0.01123558  0.50344408  0.22871461    -0.01820
Zr760      Zr  0.94011571  0.41177743  0.44326548     2.17510
O761        O  0.90146342  0.37362382  0.40159941    -0.50660
O762        O  0.96181347  0.34734468  0.45620617    -0.73860
O763        O  0.95820984  0.43048073  0.37754422    -0.80650
O764        O  0.87822185  0.40902235  0.52472643    -0.82390
O765        O  0.01713336  0.43034016  0.38833308    -0.78020
O766        O  0.87528763  0.42147418  0.46492882    -0.89650
O767        O  0.01886074  0.36446140  0.46378895    -0.75620
O768        O  0.00463980  0.41230546  0.45529274    -0.85110
O769        O  0.95166551  0.39958285  0.50837252    -0.84800
O770        O  0.96339304  0.47390488  0.43126228    -0.71550
O771        O  0.91530881  0.46055753  0.48082372    -0.83690
Zr772      Zr  0.01891101  0.50761489  0.53833261     2.26420
Zr773      Zr  0.02798393  0.47177515  0.43937591     2.06270
Zr774      Zr  0.92786853  0.44895744  0.54470421     2.10050
Zr775      Zr  0.01546598  0.39908890  0.51934078     1.78760
O776        O  0.87690912  0.48733920  0.56205390    -0.92490
O777        O  0.06934434  0.36233644  0.53093217    -0.40300
O778        O  0.99194830  0.44832836  0.55394676    -0.76930
O779        O  0.04147877  0.45574887  0.50195328    -0.95620
O780        O  0.00224379  0.52050774  0.47533399    -0.88920
O781        O  0.95361709  0.50837356  0.53101759    -0.91770
C782        C  0.99485463  0.33921151  0.46497128     1.01990
C783        C  0.85978431  0.41979604  0.49716116     1.14920
C784        C  0.99106844  0.43811388  0.36695197     1.05700
O785        O  0.08099921  0.43905503  0.41784046    -0.93920
O786        O  0.07436751  0.51496837  0.45914044    -0.89670
O787        O  0.08503074  0.50289532  0.51767668    -0.82810
C788        C  0.09593698  0.50309415  0.48348638     1.12340
O789        O  0.88910502  0.52915165  0.42219684    -0.95900
Zr790      Zr  0.93738015  0.52063917  0.46829848     1.88940
O791        O  0.00171708  0.57148708  0.51645431    -0.72540
O792        O  0.03956274  0.52044953  0.39479058    -0.51810
O793        O  0.96061378  0.56423589  0.42278611    -0.96480
O794        O  0.87683281  0.53451189  0.48972793    -0.53700
O795        O  0.94197288  0.57261157  0.50744936    -0.73060
C796        C  0.97237615  0.58825492  0.50566353     0.99280
O797        O  0.05103833  0.54747119  0.58405102    -0.61880
O798        O  0.92364519  0.40268350  0.59316352    -0.56680
O799        O  0.00236445  0.48258007  0.60175302    -0.93370
O800        O  0.94218765  0.48558260  0.59860809    -0.91790
O801        O  0.98545617  0.35501594  0.55968994    -0.92150
O802        O  0.06113006  0.41327932  0.56692964    -0.90930
C803        C  0.97067165  0.47784014  0.61652040     1.18130
H804        H  0.93971772  0.37678311  0.51523894     0.34070
H805        H  0.06568723  0.44655598  0.50398888     0.44920
H806        H  0.94378494  0.52606575  0.54836289     0.38450
H807        H  0.95701863  0.48395482  0.40793528     0.34930
H808        H  0.06083182  0.33650114  0.53528813     0.26720
H809        H  0.04845087  0.50780463  0.37230990     0.32650
H810        H  0.94169745  0.58301889  0.41893881     0.38560
H811        H  0.00438564  0.33724488  0.56707542     0.33020
H812        H  0.90855617  0.41412518  0.61245313     0.31900
H813        H  0.87476750  0.48527946  0.58924711     0.33580
H814        H  0.86603804  0.50978918  0.49487485     0.32550
H815        H  0.05720273  0.43937310  0.57508801     0.36550
H816        H  0.03200367  0.55590995  0.60106547     0.29280
H817        H  0.91721600  0.36736723  0.38061669     0.33510
H818        H  0.88381607  0.55609970  0.42217765     0.36360
H819        H  0.90869943  0.38166722  0.58264718     0.28970
H820        H  0.06576608  0.53012496  0.59888251     0.41850
H821        H  0.08238064  0.41672434  0.43354955     0.31900
H822        H  0.08221878  0.36152644  0.50716831     0.39520
H823        H  0.87997212  0.54642790  0.51455444     0.31370
H824        H  0.01559497  0.53046861  0.38811145     0.31430
H825        H  0.88381031  0.39129031  0.39120504     0.31700
C826        C  0.00860464  0.19082714  0.50311852    -0.01820
C827        C  0.25735514  0.93539977  0.96241319    -0.01820
Zr828      Zr  0.96330907  0.02064354  0.03992878     2.17510
O829        O  0.93670459  0.06944095  0.07774758    -0.50660
O830        O  0.94632053  0.08200699  0.01381749    -0.73860
O831        O  0.97513422  0.01008915  0.10611297    -0.80650
O832        O  0.89078939  0.01009113  0.97595611    -0.82390
O833        O  0.02815842  0.97886762  0.11126285    -0.78020
O834        O  0.90392990  0.99730868  0.03440633    -0.89650
O835        O  0.98686112  0.09470285  0.96927887    -0.75620
O836        O  0.02662315  0.03337960  0.03300285    -0.85110
O837        O  0.96532159  0.02780729  0.97452635    -0.84800
O838        O  0.99185394  0.96274054  0.05377362    -0.71550
O839        O  0.93584463  0.96541864  0.01026894    -0.83690
Zr840      Zr  0.03149437  0.93021909  0.95520422     2.26420
Zr841      Zr  0.05607002  0.97600128  0.04785348     2.06270
Zr842      Zr  0.94027276  0.97430078  0.94538255     2.10050
Zr843      Zr  0.02797291  0.04285289  0.96821194     1.78760
O844        O  0.90185759  0.92151152  0.92499282    -0.92490
O845        O  0.05942722  0.08849923  0.00845882    -0.40300
O846        O  0.00250336  0.98635366  0.94369131    -0.76930
O847        O  0.05923488  0.98667646  0.98272265    -0.95620
O848        O  0.02626760  0.92473892  0.01852560    -0.88920
O849        O  0.96853286  0.91670717  0.96089980    -0.91770
C850        C  0.95778672  0.10207472  0.98678234     1.01990
C851        C  0.88326243  0.01199103  0.01082311     1.14920
C852        C  0.99743661  0.99002265  0.12472665     1.05700
O853        O  0.09180309  0.03173988  0.06506530    -0.93920
O854        O  0.10881604  0.94412211  0.01458705    -0.89670
O855        O  0.09299884  0.92485730  0.95577536    -0.82810
C856        C  0.11608718  0.93022917  0.98162432     1.12340
O857        O  0.91416412  0.91973430  0.06676115    -0.95900
Zr858      Zr  0.96478489  0.90910487  0.02598154     1.88940
O859        O  0.05131050  0.87438305  0.98972430    -0.72540
O860        O  0.10024078  0.94475038  0.08689110    -0.51810
O861        O  0.95407598  0.87350299  0.08172897    -0.96480
O862        O  0.92664042  0.86344663  0.99160726    -0.53700
O863        O  0.01533733  0.86829626  0.03888736    -0.73060
C864        C  0.04306747  0.85847463  0.02045902     0.99280
O865        O  0.02633581  0.88188186  0.90699695    -0.61880
O866        O  0.90339085  0.00030872  0.89574323    -0.56680
O867        O  0.03502979  0.95628107  0.89409599    -0.93370
O868        O  0.97884199  0.98162629  0.88956963    -0.91790
O869        O  0.02896846  0.06619165  0.90545723    -0.92150
O870        O  0.08513375  0.05279726  0.93687211    -0.90930
C871        C  0.01048362  0.97378182  0.87622133     1.18130
H872        H  0.94863574  0.04322870  0.96129797     0.34070
H873        H  0.08374571  0.99129529  0.97491150     0.44920
H874        H  0.96134366  0.89557307  0.94529928     0.38450
H875        H  0.98424858  0.95109859  0.07603840     0.34930
H876        H  0.07013170  0.10672688  0.99128020     0.26720
H877        H  0.09786322  0.95594099  0.11195723     0.32650
H878        H  0.96029038  0.84753339  0.07522611     0.38560
H879        H  0.00811199  0.05335513  0.89264849     0.33020
H880        H  0.87793140  0.99581622  0.90300886     0.31900
H881        H  0.88786372  0.91499380  0.94718808     0.33580
H882        H  0.90999543  0.85312937  0.01019383     0.32550
H883        H  0.10388675  0.05436272  0.95693384     0.36550
H884        H  0.05169331  0.87729014  0.89988885     0.29280
H885        H  0.95334753  0.07427821  0.09924843     0.33510
H886        H  0.89251108  0.91826140  0.05002700     0.36360
H887        H  0.90718425  0.02765410  0.89851293     0.28970
H888        H  0.01880783  0.85907507  0.92014796     0.41850
H889        H  0.09269792  0.03187362  0.09251246     0.31900
H890        H  0.03956105  0.10213559  0.02032981     0.39520
H891        H  0.94269593  0.84267630  0.98531842     0.31370
H892        H  0.09080587  0.91879790  0.08857039     0.31430
H893        H  0.91444908  0.05797312  0.08780924     0.31700
C894        C  0.97185151  0.94286186  0.27163988    -0.01820
C895        C  0.95323318  0.24898423  0.98576273    -0.01820
Zr896      Zr  0.29333791  0.25885287  0.93757939     2.17510
O897        O  0.32371470  0.29483641  0.89041367    -0.50660
O898        O  0.35672936  0.24334741  0.96038708    -0.73860
O899        O  0.29457762  0.32564224  0.96388186    -0.80650
O900        O  0.21965880  0.22716269  0.88982809    -0.82390
O901        O  0.30556512  0.31487954  0.02316263    -0.78020
O902        O  0.27519373  0.23779892  0.87244823    -0.89650
O903        O  0.34996775  0.18360694  0.95143737    -0.75620
O904        O  0.31186971  0.23537886  0.99585931    -0.85110
O905        O  0.28498307  0.19106304  0.93428754    -0.84800
O906        O  0.24696015  0.28040523  0.97872929    -0.71550
O907        O  0.22992337  0.24059015  0.93081034    -0.83690
Zr908      Zr  0.19953651  0.17984493  0.03362962     2.26420
Zr909      Zr  0.26929778  0.26048514  0.03706150     2.06270
Zr910      Zr  0.22103881  0.17474107  0.92912064     2.10050
Zr911      Zr  0.30404969  0.16885959  0.99376436     1.78760
O912        O  0.16285294  0.16053438  0.89805968    -0.92490
O913        O  0.33712555  0.17695167  0.05316444    -0.40300
O914        O  0.24087385  0.15965317  0.98861193    -0.76930
O915        O  0.26384063  0.19212913  0.03969751    -0.95620
O916        O  0.20555273  0.24604493  0.03159196    -0.88920
O917        O  0.17931632  0.19519749  0.97293446    -0.91770
C918        C  0.36944194  0.21018249  0.96365679     1.01990
C919        C  0.24227969  0.22682829  0.86433736     1.14920
C920        C  0.29439425  0.33696910  0.99854091     1.05700
O921        O  0.30969874  0.28661203  0.08505429    -0.93920
O922        O  0.27855748  0.22869041  0.09043583    -0.89670
O923        O  0.21926578  0.21631477  0.09394068    -0.82810
C924        C  0.24987803  0.23085620  0.10776581     1.12340
O925        O  0.17598177  0.32398547  0.94621593    -0.95900
Zr926      Zr  0.18590321  0.26220055  0.97085129     1.88940
O927        O  0.13325264  0.20402529  0.02641705    -0.72540
O928        O  0.22627533  0.30303309  0.06339660    -0.51810
O929        O  0.16234750  0.30562271  0.01665754    -0.96480
O930        O  0.15334828  0.25990082  0.91155108    -0.53700
O931        O  0.12856582  0.23741176  0.97429186    -0.73060
C932        C  0.11455680  0.22385854  0.00236068     0.99280
O933        O  0.17249626  0.13890032  0.07907932    -0.61880
O934        O  0.23408029  0.12534535  0.88453254    -0.56680
O935        O  0.21092680  0.11087297  0.01170066    -0.93370
O936        O  0.22102476  0.11204530  0.94976705    -0.91790
O937        O  0.29758889  0.10723081  0.96534433    -0.92150
O938        O  0.34132999  0.11522495  0.00860547    -0.90930
C939        C  0.21821562  0.09408696  0.97977561     1.18130
H940        H  0.29722191  0.17985238  0.91361560     0.34070
H941        H  0.27052635  0.17670570  0.06041391     0.44920
H942        H  0.15695738  0.18218347  0.96583747     0.38450
H943        H  0.24020698  0.30604006  0.97866633     0.34930
H944        H  0.36262314  0.17017569  0.04915901     0.26720
H945        H  0.23974194  0.31577670  0.08408012     0.32650
H946        H  0.14777765  0.29022015  0.03359684     0.38560
H947        H  0.30345156  0.11083878  0.93898053     0.33020
H948        H  0.22239439  0.13163406  0.86067009     0.31900
H949        H  0.16620261  0.16758862  0.87195350     0.33580
H950        H  0.13025168  0.27305032  0.91495638     0.32550
H951        H  0.33937786  0.11062818  0.03542178     0.36550
H952        H  0.19312636  0.13186582  0.09536188     0.29280
H953        H  0.33952810  0.31299245  0.90445760     0.33510
H954        H  0.18129576  0.32223896  0.91948258     0.36360
H955        H  0.26058457  0.12601047  0.88105989     0.28970
H956        H  0.15793709  0.15563544  0.09472609     0.41850
H957        H  0.33166687  0.27130338  0.08489987     0.31900
H958        H  0.33816512  0.20415000  0.05821130     0.39520
H959        H  0.14604911  0.23340607  0.90734044     0.31370
H960        H  0.22289552  0.32245063  0.04465292     0.31430
H961        H  0.30414019  0.30999128  0.87957189     0.31700
Zr962      Zr  0.29437438  0.92711647  0.28210187     2.17510
O963        O  0.32786142  0.89076060  0.32721488    -0.50660
O964        O  0.35940120  0.94762866  0.27275784    -0.73860
O965        O  0.27873240  0.85841761  0.26644231    -0.80650
O966        O  0.25796433  0.01526224  0.34557929    -0.82390
O967        O  0.28029356  0.86144294  0.20532837    -0.78020
O968        O  0.26927468  0.95320123  0.34358794    -0.89650
O969        O  0.34961857  0.94384257  0.21328203    -0.75620
O970        O  0.29940011  0.92906089  0.21534822    -0.85110
O971        O  0.30694339  0.99113040  0.26436984    -0.84800
O972        O  0.23609539  0.90855033  0.25453737    -0.71550
O973        O  0.24546486  0.96470336  0.29667463    -0.83690
Zr974      Zr  0.19985436  0.00630139  0.19472557     2.26420
Zr975      Zr  0.24253453  0.91085969  0.18835137     2.06270
Zr976      Zr  0.25685335  0.02712178  0.28208468     2.10050
Zr977      Zr  0.31000212  0.99200441  0.19757737     1.78760
O978        O  0.21583536  0.07531130  0.30328212    -0.92490
O979        O  0.34419967  0.97768503  0.14216038    -0.40300
O980        O  0.25878415  0.02368601  0.21681121    -0.76930
O981        O  0.25293345  0.97411364  0.17162381    -0.95620
O982        O  0.19316274  0.94356668  0.21245832    -0.88920
O983        O  0.19680181  0.00779965  0.26117866    -0.91770
C984        C  0.37064008  0.95330878  0.23977107     1.01990
C985        C  0.25842618  0.98378343  0.36074495     1.14920
C986        C  0.27196231  0.84358959  0.23373921     1.05700
O987        O  0.28389190  0.90592618  0.13676342    -0.93920
O988        O  0.20060918  0.91788388  0.13828108    -0.89670
O989        O  0.19861292  0.97942996  0.13148179    -0.82810
C990        C  0.20370950  0.94627379  0.11819275     1.12340
O991        O  0.20527677  0.90417879  0.32933466    -0.95900
Zr992      Zr  0.18810990  0.94387528  0.27800257     1.88940
O993        O  0.13783014  0.98186702  0.21085033    -0.72540
O994        O  0.20135990  0.85895806  0.17176959    -0.51810
O995        O  0.14235584  0.90429566  0.30684957    -0.96480
O996        O  0.15247857  0.98685143  0.31484807    -0.53700
O997        O  0.14731472  0.92479735  0.23035875    -0.73060
C998        C  0.12556006  0.95050976  0.22382342     0.99280
O999        O  0.16521929  0.04768660  0.15525012    -0.61880
O1000       O  0.30358861  0.06385448  0.31604002    -0.56680
O1001       O  0.21416012  0.07403881  0.21581118    -0.93370
O1002       O  0.27056925  0.06953032  0.23618715    -0.91790
O1003       O  0.34765006  0.04587656  0.21545417    -0.92150
O1004       O  0.31168744  0.03108259  0.14302716    -0.90930
C1005       C  0.24383104  0.08970175  0.23007991     1.18130
H1006       H  0.32761459  0.00259589  0.27683983     0.34070
H1007       H  0.25831336  0.97714633  0.14579643     0.44920
H1008       H  0.17822318  0.02472973  0.26878826     0.38450
H1009       H  0.22634030  0.88509028  0.26160862     0.34930
H1010       H  0.36935760  0.98646399  0.14800948     0.26720
H1011       H  0.21607878  0.83632793  0.17032806     0.32650
H1012       H  0.12153327  0.92023744  0.31252174     0.38560
H1013       H  0.36426948  0.04943045  0.19453625     0.33020
H1014       H  0.29066696  0.08017586  0.33354700     0.31900
H1015       H  0.23150634  0.09518791  0.31488390     0.33580
H1016       H  0.15004655  0.97488988  0.33922009     0.32550
H1017       H  0.29147025  0.04853767  0.14630519     0.36550
H1018       H  0.14726146  0.05894750  0.17188087     0.29280
H1019       H  0.34434305  0.87550882  0.31216485     0.33510
H1020       H  0.20177595  0.91986549  0.35178222     0.36360
H1021       H  0.31666384  0.04619506  0.33203856     0.28970
H1022       H  0.18222477  0.06845660  0.14956675     0.41850
H1023       H  0.30409558  0.89036395  0.14556685     0.31900
H1024       H  0.34556036  0.95015806  0.14091243     0.39520
H1025       H  0.12772425  0.98574132  0.30366180     0.31370
H1026       H  0.18554320  0.85577414  0.19332441     0.31430
H1027       H  0.30973367  0.87254269  0.33637592     0.31700
Zr1028     Zr  0.02738424  0.16446266  0.20563033     2.17510
O1029       O  0.05490226  0.11478002  0.16970123    -0.50660
O1030       O  0.09289407  0.17674791  0.22453157    -0.73860
O1031       O  0.01735698  0.17906181  0.13637302    -0.80650
O1032       O  0.95744424  0.11737256  0.25937057    -0.82390
O1033       O  0.03107745  0.23796913  0.14472675    -0.78020
O1034       O  0.01004276  0.10201568  0.23580660    -0.89650
O1035       O  0.07833218  0.23430763  0.22355641    -0.75620
O1036       O  0.03932304  0.23104830  0.21280305    -0.85110
O1037       O  0.03450024  0.17845457  0.27215226    -0.84800
O1038       O  0.97353734  0.19663360  0.18326677    -0.71550
O1039       O  0.97193995  0.15721932  0.23656268    -0.83690
Zr1040     Zr  0.94296428  0.26494321  0.28092581     2.26420
Zr1041     Zr  0.98884911  0.26168317  0.18722708     2.06270
Zr1042     Zr  0.97701725  0.16572744  0.30073866     2.10050
Zr1043     Zr  0.04708079  0.24452628  0.27819758     1.78760
O1044       O  0.95082692  0.11355795  0.33439542    -0.92490
O1045       O  0.09429808  0.28899168  0.30109755    -0.40300
O1046       O  0.99235684  0.23077578  0.30682972    -0.76930
O1047       O  0.99966179  0.27724517  0.25103626    -0.95620
O1048       O  0.93518439  0.24760054  0.21740322    -0.88920
O1049       O  0.92571596  0.19978443  0.27826465    -0.91770
C1050       C  0.10227771  0.21098232  0.23042796     1.01990
C1051       C  0.98071859  0.09283768  0.25369187     1.14920
C1052       C  0.01748244  0.21282072  0.12368693     1.05700
O1053       O  0.01987086  0.31009789  0.15257194    -0.93920
O1054       O  0.97848504  0.32478223  0.19852699    -0.89670
O1055       O  0.95724649  0.32883061  0.25745788    -0.82810
C1056       C  0.97032790  0.34291737  0.22734151     1.12340
O1057       O  0.92683000  0.12229133  0.18366010    -0.95900
Zr1058     Zr  0.91930990  0.18277819  0.21419620     1.88940
O1059       O  0.88089001  0.25409638  0.25251775    -0.72540
O1060       O  0.93723710  0.27014850  0.14514771    -0.51810
O1061       O  0.88238169  0.15515113  0.16390991    -0.96480
O1062       O  0.87080042  0.15600217  0.25142884    -0.53700
O1063       O  0.88646801  0.23426107  0.19424738    -0.73060
C1064       C  0.86675610  0.24582171  0.21986498     0.99280
O1065       O  0.90912054  0.30620310  0.32110915    -0.61880
O1066       O  0.02575325  0.14407048  0.34169414    -0.56680
O1067       O  0.96045527  0.24763462  0.34738871    -0.93370
O1068       O  0.93699349  0.19158756  0.34370761    -0.91790
O1069       O  0.08271882  0.21100522  0.32410976    -0.92150
O1070       O  0.04337407  0.30661711  0.30776525    -0.90930
C1071       C  0.95519605  0.21524915  0.36228725     1.18130
H1072       H  0.05359185  0.16344585  0.28235290     0.34070
H1073       H  0.01140264  0.30124621  0.25287652     0.44920
H1074       H  0.90324075  0.19603526  0.29106675     0.38450
H1075       H  0.96413169  0.18995274  0.15936915     0.34930
H1076       H  0.11585328  0.27485057  0.30879454     0.26720
H1077       H  0.94716517  0.28029748  0.12210061     0.32650
H1078       H  0.86015555  0.14473998  0.17511365     0.38560
H1079       H  0.09027680  0.22907919  0.34391796     0.33020
H1080       H  0.01464624  0.13375241  0.36407770     0.31900
H1081       H  0.97055431  0.09631185  0.34044933     0.33580
H1082       H  0.86016018  0.13496628  0.23660108     0.32550
H1083       H  0.01803789  0.30896374  0.31608964     0.36550
H1084       H  0.92732551  0.31513589  0.33995189     0.29280
H1085       H  0.07172804  0.12780419  0.15296026     0.33510
H1086       H  0.95242993  0.12165234  0.17586737     0.36360
H1087       H  0.03878182  0.16683421  0.35082030     0.28970
H1088       H  0.90412886  0.32840689  0.30603577     0.41850
H1089       H  0.00195562  0.31873923  0.13392358     0.31900
H1090       H  0.10215969  0.30447721  0.28017880     0.39520
H1091       H  0.85152188  0.17481794  0.25147751     0.31370
H1092       H  0.92783849  0.24483721  0.13866064     0.31430
H1093       H  0.03504973  0.10482564  0.15319314     0.31700
C1094       C  0.24653816  0.25183373  0.26087136    -0.01820
C1095       C  0.61687944  0.09776652  0.11578430    -0.01820
C1096       C  0.62482641  0.59168594  0.62343616    -0.01820
C1097       C  0.13547314  0.22622168  0.25065323    -0.04670
C1098       C  0.15514400  0.20605981  0.27712302    -0.01780
C1099       C  0.18950542  0.21994357  0.29002716     0.03210
C1100       C  0.20558368  0.25206772  0.27362634    -0.04660
C1101       C  0.18037756  0.27786473  0.25853421    -0.01770
C1102       C  0.14664188  0.26398459  0.24434666     0.03200
C1103       C  0.14108396  0.17058449  0.28996040     0.37850
C1104       C  0.19161618  0.31544094  0.24792424     0.37840
C1105       C  0.12970224  0.28493423  0.21447926     0.36270
C1106       C  0.20857651  0.19959695  0.31835009     0.36270
N1107       N  0.11821101  0.30031117  0.18900567    -0.38550
N1108       N  0.22148768  0.18189579  0.34143434    -0.38550
N1109       N  0.20015046  0.34512620  0.23883809    -0.38000
N1110       N  0.13008290  0.14221234  0.30027708    -0.38000
C1111       C  0.24788789  0.12942863  0.24343142    -0.04670
C1112       C  0.22011065  0.15419008  0.23574048    -0.01780
C1113       C  0.23293767  0.18890894  0.22586161     0.03210
C1114       C  0.25585098  0.20862961  0.25199313    -0.04660
C1115       C  0.28604087  0.18612867  0.26166057    -0.01770
C1116       C  0.28219140  0.14608524  0.25702760     0.03200
C1117       C  0.18489926  0.14172699  0.22124512     0.37850
C1118       C  0.32249656  0.20196355  0.26462688     0.37840
C1119       C  0.31461117  0.12433645  0.26174094     0.36270
C1120       C  0.24828162  0.18362024  0.18913245     0.36270
N1121       N  0.34156267  0.10866991  0.26532684    -0.38550
N1122       N  0.26101287  0.17444737  0.16148269    -0.38550
N1123       N  0.35241794  0.21236319  0.26711658    -0.38000
N1124       N  0.15697009  0.13137545  0.20940212    -0.38000
C1125       C  0.25347844  0.25503173  0.14195943    -0.04670
C1126       C  0.28572951  0.25747177  0.16487043    -0.01780
C1127       C  0.28298597  0.26970057  0.20241851     0.03210
C1128       C  0.24839257  0.26708594  0.21934053    -0.04660
C1129       C  0.21802169  0.26511978  0.19195669    -0.01770
C1130       C  0.22398128  0.27380256  0.15542223     0.03200
C1131       C  0.31982689  0.24217371  0.15309406     0.37850
C1132       C  0.18958154  0.23642463  0.18947115     0.37840
C1133       C  0.19356217  0.28409771  0.13149542     0.36270
C1134       C  0.31582872  0.27864675  0.22358710     0.36270
N1135       N  0.16861514  0.29197361  0.11345833    -0.38550
N1136       N  0.34283154  0.28614515  0.23918480    -0.38550
N1137       N  0.16811587  0.21346282  0.18139564    -0.38000
N1138       N  0.34708936  0.22956680  0.14434922    -0.38000
C1139       C  0.95095058  0.25671252  0.03008386    -0.04670
C1140       C  0.97883483  0.27841570  0.04836793    -0.01780
C1141       C  0.00336528  0.26138065  0.07387951     0.03210
C1142       C  0.99418391  0.22658909  0.09071406    -0.04660
C1143       C  0.95827786  0.21272629  0.08181771    -0.01770
C1144       C  0.93621735  0.23027300  0.05451928     0.03200
C1145       C  0.98035929  0.31824166  0.04316335     0.37850
C1146       C  0.94387938  0.17860398  0.09688057     0.37840
C1147       C  0.89861700  0.23471178  0.06311737     0.36270
C1148       C  0.03886706  0.27875676  0.08013987     0.36270
N1149       N  0.86861745  0.24033801  0.06956618    -0.38550
N1150       N  0.06735484  0.29250902  0.08466993    -0.38550
N1151       N  0.93229617  0.15045248  0.10701933    -0.38000
N1152       N  0.98116768  0.35032328  0.04001235    -0.38000
C1153       C  0.99655854  0.24082015  0.98421096    -0.04670
C1154       C  0.01205923  0.20827191  0.00237766    -0.01780
C1155       C  0.04948394  0.20543471  0.01276983     0.03210
C1156       C  0.07441489  0.23205024  0.00239392    -0.04660
C1157       C  0.06069657  0.26504598  0.98579380    -0.01770
C1158       C  0.02290767  0.27013832  0.97870706     0.03200
C1159       C  0.99143598  0.17872750  0.01811372     0.37850
C1160       C  0.08510162  0.29601796  0.97768609     0.37840
C1161       C  0.01225876  0.30773443  0.96941981     0.36270
C1162       C  0.06247148  0.17686777  0.03790459     0.36270
N1163       N  0.00546041  0.33811678  0.96186969    -0.38550
N1164       N  0.07297470  0.15537986  0.05895352    -0.38550
N1165       N  0.10273422  0.32173783  0.97021199    -0.38000
N1166       N  0.98232062  0.15398492  0.03602151    -0.38000
C1167       C  0.97369485  0.05700280  0.27262445    -0.04670
C1168       C  0.93893595  0.03891086  0.27102545    -0.01780
C1169       C  0.93505159  0.00240708  0.28468570     0.03210
C1170       C  0.96638345  0.98222618  0.29203533    -0.04660
C1171       C  0.99566358  0.00506852  0.30842915    -0.01770
C1172       C  0.00001903  0.04230640  0.29662727     0.03200
C1173       C  0.90800408  0.05577759  0.25322657     0.37850
C1174       C  0.02597402  0.99038437  0.32944050     0.37840
C1175       C  0.03332936  0.06344504  0.30523960     0.36270
C1176       C  0.89980876  0.98645117  0.29273960     0.36270
N1177       N  0.06028109  0.07957594  0.31188042    -0.38550
N1178       N  0.87131485  0.97419911  0.29896038    -0.38550
N1179       N  0.05241908  0.98196815  0.34474518    -0.38000
N1180       N  0.88285642  0.06816740  0.23865939    -0.38000
C1181       C  0.01480827  0.94299969  0.26531461    -0.04670
C1182       C  0.03155228  0.97488263  0.24709514    -0.01780
C1183       C  0.06866396  0.97875338  0.24394132     0.03210
C1184       C  0.08831711  0.94667230  0.23907299    -0.04660
C1185       C  0.07256453  0.91242817  0.25184257    -0.01770
C1186       C  0.03797376  0.91201275  0.26937559     0.03200
C1187       C  0.01336476  0.00381204  0.22713857     0.37850
C1188       C  0.09056166  0.87736994  0.24576665     0.37840
C1189       C  0.02559641  0.87833725  0.28706669     0.36270
C1190       C  0.08515192  0.01617480  0.24220777     0.36270
N1191       N  0.01665252  0.85095714  0.30109254    -0.38550
N1192       N  0.09789389  0.04587933  0.24053232    -0.38550
N1193       N  0.10441466  0.84911971  0.24067817    -0.38000
N1194       N  0.00521225  0.02872670  0.20900453    -0.38000
C1195       C  0.93753494  0.13564011  0.97422439    -0.04670
C1196       C  0.94831764  0.15404671  0.94164328    -0.01780
C1197       C  0.94330089  0.19275136  0.93891787     0.03210
C1198       C  0.93226487  0.21249238  0.97084878    -0.04660
C1199       C  0.90613426  0.19241363  0.99077712    -0.01770
C1200       C  0.91115079  0.15379554  0.99580056     0.03200
C1201       C  0.96055574  0.13308723  0.90972059     0.37850
C1202       C  0.86992350  0.20701892  0.99221231     0.37840
C1203       C  0.89021185  0.13424972  0.02306264     0.36270
C1204       C  0.93279503  0.20618816  0.90282259     0.36270
N1205       N  0.87326495  0.11911436  0.04511365    -0.38550
N1206       N  0.92351776  0.21556696  0.87364357    -0.38550
N1207       N  0.84075808  0.21840658  0.99262011    -0.38000
N1208       N  0.96974025  0.11694111  0.88363579    -0.38000
C1209       C  0.98199941  0.97133254  0.15895380    -0.04670
C1210       C  0.94988408  0.98414523  0.17657771    -0.01780
C1211       C  0.93772664  0.96773538  0.20986890     0.03210
C1212       C  0.95900829  0.94085225  0.22823825    -0.04660
C1213       C  0.97941604  0.91927703  0.20261288    -0.01770
C1214       C  0.99553000  0.93695373  0.17201944     0.03200
C1215       C  0.93151446  0.01734141  0.16479230     0.37850
C1216       C  0.98693579  0.88047828  0.20957693     0.37840
C1217       C  0.02903264  0.92195965  0.15876378     0.36270
C1218       C  0.89886316  0.96680053  0.21473283     0.36270
N1219       N  0.05675110  0.91027764  0.15037566    -0.38550
N1220       N  0.86753008  0.96574712  0.21667930    -0.38550
N1221       N  0.99244389  0.84916529  0.21392139    -0.38000
N1222       N  0.91615895  0.04401883  0.15709254    -0.38000
C1223       C  0.25710245  0.98001752  0.95180572    -0.04670
C1224       C  0.27689368  0.00562912  0.97624487    -0.01780
C1225       C  0.26065561  0.03888975  0.99054757     0.03210
C1226       C  0.22904954  0.05346134  0.97376216    -0.04660
C1227       C  0.21613152  0.03417198  0.94106177    -0.01770
C1228       C  0.23008019  0.99879298  0.92973572     0.03200
C1229       C  0.31354306  0.99760396  0.98796247     0.37850
C1230       C  0.18616263  0.04966554  0.91979103     0.37840
C1231       C  0.22194537  0.98861229  0.89148512     0.36270
C1232       C  0.27528458  0.05652050  0.02415257     0.36270
N1233       N  0.21453326  0.98372319  0.86039785    -0.38550
N1234       N  0.28587523  0.06965339  0.05192982    -0.38550
N1235       N  0.16253706  0.06207523  0.90270581    -0.38000
N1236       N  0.34360530  0.99384775  0.99674421    -0.38000
C1237       C  0.15292309  0.92022097  0.96932444    -0.04670
C1238       C  0.16460650  0.92960766  0.93274656    -0.01780
C1239       C  0.19974646  0.91985634  0.92149970     0.03210
C1240       C  0.22445853  0.90851396  0.94823259    -0.04660
C1241       C  0.20679262  0.88361855  0.97300308    -0.01770
C1242       C  0.17395540  0.89462920  0.98878582     0.03200
C1243       C  0.14153969  0.94876716  0.90660182     0.37850
C1244       C  0.21305155  0.84403621  0.97072973     0.37840
C1245       C  0.16039281  0.87664047  0.02148230     0.36270
C1246       C  0.20546009  0.90713522  0.88386524     0.36270
N1247       N  0.14956999  0.86253117  0.04777633    -0.38550
N1248       N  0.21007304  0.89655431  0.85388290    -0.38550
N1249       N  0.21627840  0.81198995  0.96974500    -0.38000
N1250       N  0.12323690  0.96399452  0.88554892    -0.38000
C1251       C  0.25011888  0.93726669  0.00666374    -0.04670
C1252       C  0.22670206  0.96600126  0.02074273    -0.01780
C1253       C  0.22349900  0.97298870  0.05818527     0.03210
C1254       C  0.22050549  0.94199417  0.08080655    -0.04660
C1255       C  0.23571633  0.90813520  0.06712497    -0.01770
C1256       C  0.25421770  0.90719099  0.03251006     0.03200
C1257       C  0.19621161  0.98130250  0.00067494     0.37850
C1258       C  0.23083688  0.87328213  0.08642532     0.37840
C1259       C  0.27099941  0.87222352  0.02253338     0.36270
C1260       C  0.21450984  0.01071797  0.07004469     0.36270
N1261       N  0.28407298  0.84374575  0.01625651    -0.38550
N1262       N  0.20719713  0.04077830  0.07892343    -0.38550
N1263       N  0.22750183  0.84441654  0.09992224    -0.38000
N1264       N  0.17030405  0.99538475  0.98937860    -0.38000
C1265       C  0.97960256  0.19946587  0.39243249    -0.04670
C1266       C  0.96898335  0.16628447  0.41125110    -0.01780
C1267       C  0.98975821  0.15411345  0.44214439     0.03210
C1268       C  0.01462286  0.17997331  0.46024735    -0.04660
C1269       C  0.03272976  0.20319650  0.43505442    -0.01770
C1270       C  0.01431233  0.21514823  0.40269456     0.03200
C1271       C  0.93385436  0.14825106  0.40397730     0.37850
C1272       C  0.07188148  0.20226588  0.43394834     0.37840
C1273       C  0.02928157  0.24737319  0.38487248     0.36270
C1274       C  0.97964579  0.11960369  0.46008356     0.36270
N1275       N  0.04232006  0.27424871  0.37347560    -0.38550
N1276       N  0.97161771  0.09184299  0.47394947    -0.38550
N1277       N  0.10311873  0.20082514  0.43166093    -0.38000
N1278       N  0.90562803  0.13407066  0.39891498    -0.38000
C1279       C  0.00477482  0.30527116  0.48627480    -0.04670
C1280       C  0.03913362  0.28820552  0.48204728    -0.01780
C1281       C  0.04594124  0.25360282  0.49895532     0.03210
C1282       C  0.01711600  0.23350910  0.51437628    -0.04660
C1283       C  0.99009081  0.25696310  0.53065312    -0.01770
C1284       C  0.98112555  0.29033530  0.51293548     0.03200
C1285       C  0.06655509  0.30433757  0.45860739     0.37850
C1286       C  0.96622354  0.24429986  0.55978099     0.37840
C1287       C  0.94423122  0.30349783  0.51659023     0.36270
C1288       C  0.08261301  0.24109672  0.50473053     0.36270
N1289       N  0.91425080  0.31192339  0.51958588    -0.38550
N1290       N  0.11225613  0.23188647  0.50939498    -0.38550
N1291       N  0.94687438  0.23511424  0.58295871    -0.38000
N1292       N  0.08854953  0.31711673  0.43991385    -0.38000
C1293       C  0.00111383  0.46220206  0.33396931    -0.04670
C1294       C  0.98562844  0.49780634  0.32785259    -0.01780
C1295       C  0.99865654  0.52141928  0.29971614     0.03210
C1296       C  0.02257489  0.50787411  0.27233674    -0.04660
C1297       C  0.04654480  0.48155753  0.28792238    -0.01770
C1298       C  0.03402427  0.45585919  0.31483486     0.03200
C1299       C  0.95384095  0.51026964  0.34681771     0.37850
C1300       C  0.08500079  0.48515226  0.28176973     0.37840
C1301       C  0.05568713  0.42354338  0.32280382     0.36270
C1302       C  0.99927497  0.56070503  0.30965673     0.36270
N1303       N  0.07301393  0.39771236  0.32895118    -0.38550
N1304       N  0.99908034  0.59149569  0.31989873    -0.38550
N1305       N  0.11617827  0.48720494  0.27881080    -0.38000
N1306       N  0.92727217  0.52113409  0.35912501    -0.38000
C1307       C  0.00250519  0.45922301  0.22670453    -0.04670
C1308       C  0.02884489  0.43110733  0.22027749    -0.01780
C1309       C  0.01849895  0.39283265  0.22227399     0.03210
C1310       C  0.98163343  0.38192689  0.22619240    -0.04660
C1311       C  0.95583371  0.40827827  0.22981057    -0.01770
C1312       C  0.96810554  0.44392264  0.23960051     0.03200
C1313       C  0.06687107  0.43979726  0.21422409     0.37850
C1314       C  0.91760488  0.39676489  0.23265056     0.37840
C1315       C  0.94813130  0.45640223  0.27087754     0.36270
C1316       C  0.04600825  0.36481062  0.22312431     0.36270
N1317       N  0.92766432  0.45852368  0.29470794    -0.38550
N1318       N  0.06806079  0.34251759  0.22494763    -0.38550
N1319       N  0.88757378  0.38721928  0.23530836    -0.38000
N1320       N  0.09728072  0.44517420  0.20825608    -0.38000
C1321       C  0.54059825  0.02968804  0.19633055    -0.04670
C1322       C  0.57743310  0.04308187  0.20428203    -0.01780
C1323       C  0.60244006  0.05410630  0.17634812     0.03210
C1324       C  0.59120705  0.06977175  0.14191239    -0.04660
C1325       C  0.55380864  0.05922231  0.13339766    -0.01770
C1326       C  0.52904219  0.04359177  0.16027425     0.03200
C1327       C  0.58849081  0.05821218  0.24020784     0.37850
C1328       C  0.54068290  0.05990922  0.09516467     0.37840
C1329       C  0.49118192  0.05021081  0.15151641     0.36270
C1330       C  0.63535770  0.03336456  0.17851225     0.36270
N1331       N  0.46143854  0.05680012  0.14341540    -0.38550
N1332       N  0.65960575  0.01355514  0.18167149    -0.38550
N1333       N  0.53023019  0.05963699  0.06470277    -0.38000
N1334       N  0.59827974  0.07145961  0.26825997    -0.38000
C1335       C  0.47201343  0.01122696  0.21429020    -0.04670
C1336       C  0.44587571  0.03027804  0.23493215    -0.01780
C1337       C  0.41349057  0.01143596  0.24533308     0.03210
C1338       C  0.40419215  0.97554800  0.22981172    -0.04660
C1339       C  0.42453968  0.96356417  0.19895340    -0.01770
C1340       C  0.45674210  0.98306361  0.18936240     0.03200
C1341       C  0.44540027  0.07045924  0.23346366     0.37850
C1342       C  0.41513279  0.92864093  0.17968674     0.37840
C1343       C  0.47787953  0.96864464  0.15893037     0.36270
C1344       C  0.39388181  0.02750245  0.27575192     0.36270
N1345       N  0.49432568  0.95712497  0.13442832    -0.38550
N1346       N  0.38035580  0.04113967  0.30108888    -0.38550
N1347       N  0.40783223  0.90070956  0.16448343    -0.38000
N1348       N  0.44350894  0.10253964  0.23127327    -0.38000
C1349       C  0.51211983  0.00039129  0.34157517    -0.04670
C1350       C  0.49718886  0.03356774  0.32664590    -0.01780
C1351       C  0.50643048  0.04488814  0.29051672     0.03210
C1352       C  0.52633517  0.02103355  0.26776624    -0.04660
C1353       C  0.55161923  0.99879203  0.28796118    -0.01770
C1354       C  0.54099845  0.98399403  0.32194211     0.03200
C1355       C  0.46725587  0.05192598  0.34394564     0.37850
C1356       C  0.58412530  0.98442566  0.27109931     0.37840
C1357       C  0.55408323  0.94715256  0.33070978     0.36270
C1358       C  0.50795836  0.08425858  0.28283922     0.36270
N1359       N  0.56388538  0.91719333  0.33592195    -0.38550
N1360       N  0.51036372  0.11593401  0.27740337    -0.38550
N1361       N  0.61061891  0.97306740  0.25889987    -0.38000
N1362       N  0.44197832  0.06566799  0.35631214    -0.38000
C1363       C  0.42298986  0.20628327  0.46259150    -0.04670
C1364       C  0.40305171  0.18692188  0.49117104    -0.01780
C1365       C  0.41039595  0.14894199  0.49875901     0.03210
C1366       C  0.43644455  0.13026203  0.47755953    -0.04660
C1367       C  0.44472482  0.14610834  0.44261448    -0.01770
C1368       C  0.43357883  0.18227697  0.43407765     0.03200
C1369       C  0.37877676  0.20616134  0.51597785     0.37850
C1370       C  0.46778944  0.12840927  0.41603016     0.37840
C1371       C  0.42876343  0.19175673  0.39568406     0.36270
C1372       C  0.39444592  0.13124549  0.53059101     0.36270
N1373       N  0.42601136  0.19527518  0.36398678    -0.38550
N1374       N  0.38155790  0.11724877  0.55596415    -0.38550
N1375       N  0.48732340  0.11740409  0.39396392    -0.38000
N1376       N  0.35917699  0.22076630  0.53597488    -0.38000
C1377       C  0.37453672  0.33038954  0.39365506    -0.04670
C1378       C  0.36161981  0.31092667  0.42584819    -0.01780
C1379       C  0.38019368  0.27986018  0.44181311     0.03210
C1380       C  0.41912406  0.27738086  0.44308157    -0.04660
C1381       C  0.43451783  0.30170029  0.41557692    -0.01770
C1382       C  0.41223846  0.32032259  0.38788916     0.03200
C1383       C  0.33288771  0.32349377  0.44894070     0.37850
C1384       C  0.47322251  0.30858091  0.41343621     0.37840
C1385       C  0.42797409  0.32281959  0.35149988     0.36270
C1386       C  0.35662184  0.24832817  0.44906885     0.36270
N1387       N  0.44052381  0.32341389  0.32240338    -0.38550
N1388       N  0.33567830  0.22403637  0.45169555    -0.38550
N1389       N  0.50389569  0.31550517  0.41084155    -0.38000
N1390       N  0.31088994  0.33019403  0.47036625    -0.38000
C1391       C  0.32361608  0.32908236  0.33657980    -0.04670
C1392       C  0.32719574  0.28914293  0.33230563    -0.01780
C1393       C  0.29966782  0.26456640  0.31542739     0.03210
C1394       C  0.27116804  0.27745299  0.29190831    -0.04660
C1395       C  0.26357458  0.31546594  0.30226772    -0.01770
C1396       C  0.29045752  0.34118392  0.31868622     0.03200
C1397       C  0.36006796  0.27076928  0.34187623     0.37850
C1398       C  0.22787935  0.32225129  0.31657527     0.37840
C1399       C  0.28121886  0.38040551  0.31879811     0.36270
C1400       C  0.29567808  0.22862239  0.33276012     0.36270
N1401       N  0.27338089  0.41149817  0.31816812    -0.38550
N1402       N  0.29500900  0.20050872  0.34805344    -0.38550
N1403       N  0.20016831  0.32807995  0.32986816    -0.38000
N1404       N  0.38548503  0.25345102  0.34773891    -0.38000
C1405       C  0.43441818  0.42829642  0.29423030    -0.04670
C1406       C  0.39725959  0.42053876  0.28352461    -0.01780
C1407       C  0.37524787  0.39159496  0.30016155     0.03210
C1408       C  0.37870316  0.38230714  0.33905744    -0.04660
C1409       C  0.41135096  0.40001962  0.35487281    -0.01770
C1410       C  0.44017119  0.41629838  0.33243118     0.03200
C1411       C  0.37592913  0.44953457  0.26739480     0.37850
C1412       C  0.41561772  0.40254978  0.39501047     0.37840
C1413       C  0.47511423  0.41996205  0.35123895     0.36270
C1414       C  0.34853190  0.37499846  0.27492877     0.36270
N1415       N  0.50241390  0.42074930  0.36775065    -0.38550
N1416       N  0.32837721  0.36383536  0.25211918    -0.38550
N1417       N  0.41901566  0.40490107  0.42693382    -0.38000
N1418       N  0.35590731  0.47215229  0.25797502    -0.38000
C1419       C  0.48645941  0.44811695  0.14934879    -0.04670
C1420       C  0.45706353  0.42568485  0.16293475    -0.01780
C1421       C  0.45487025  0.41876511  0.20185349     0.03210
C1422       C  0.47447284  0.44319108  0.22686818    -0.04660
C1423       C  0.50456200  0.46347938  0.20964707    -0.01770
C1424       C  0.51483000  0.45521082  0.17385448     0.03200
C1425       C  0.42839803  0.41130402  0.13822030     0.37850
C1426       C  0.52193242  0.49795370  0.22225345     0.37840
C1427       C  0.55141166  0.46400334  0.16151044     0.36270
C1428       C  0.43156847  0.38900721  0.21446446     0.36270
N1429       N  0.58056590  0.47085288  0.15198185    -0.38550
N1430       N  0.41373649  0.36377547  0.22301337    -0.38550
N1431       N  0.53943467  0.52495205  0.22669030    -0.38000
N1432       N  0.40526928  0.39979695  0.11876954    -0.38000
C1433       C  0.19770420  0.45152763  0.45018020    -0.04670
C1434       C  0.17476992  0.43236814  0.47577498    -0.01780
C1435       C  0.14271605  0.44975986  0.48820730     0.03210
C1436       C  0.12858382  0.48113747  0.46936630    -0.04660
C1437       C  0.14492374  0.48899758  0.43442286    -0.01770
C1438       C  0.17764069  0.47132308  0.42401660     0.03200
C1439       C  0.18750084  0.39975711  0.49542324     0.37850
C1440       C  0.13028430  0.51661604  0.40981720     0.37840
C1441       C  0.18669013  0.46640192  0.38548391     0.36270
C1442       C  0.13148542  0.44045206  0.52498366     0.36270
N1443       N  0.19371152  0.46165680  0.35466935    -0.38550
N1444       N  0.12704407  0.43237385  0.55541064    -0.38550
N1445       N  0.11937601  0.53896536  0.38993596    -0.38000
N1446       N  0.19727515  0.37393769  0.51136141    -0.38000
C1447       C  0.26762953  0.43461751  0.43289736    -0.04670
C1448       C  0.26125557  0.39558432  0.42333878    -0.01780
C1449       C  0.28703247  0.37186310  0.40389155     0.03210
C1450       C  0.32126060  0.38497357  0.38867278    -0.04660
C1451       C  0.32348018  0.42554844  0.39142332    -0.01770
C1452       C  0.29841114  0.44884057  0.41238752     0.03200
C1453       C  0.22492950  0.37988509  0.42563277     0.37850
C1454       C  0.34875879  0.44657261  0.36925562     0.37840
C1455       C  0.30355820  0.48879486  0.40771026     0.36270
C1456       C  0.27542738  0.33302982  0.39789007     0.36270
N1457       N  0.30954242  0.52012992  0.40263236    -0.38550
N1458       N  0.26560701  0.30223033  0.39450841    -0.38550
N1459       N  0.36710858  0.46654352  0.35263587    -0.38000
N1460       N  0.19650802  0.36545492  0.42400508    -0.38000
C1461       C  0.97855235  0.70281745  0.47269339    -0.04670
C1462       C  0.94660627  0.68240731  0.46136272    -0.01780
C1463       C  0.94246579  0.64449998  0.47290680     0.03210
C1464       C  0.97354750  0.62466505  0.48617103    -0.04660
C1465       C  0.00676383  0.64181790  0.48151649    -0.01770
C1466       C  0.00719462  0.67965579  0.48791133     0.03200
C1467       C  0.91611589  0.70062866  0.44431294     0.37850
C1468       C  0.04058627  0.62149987  0.47975211     0.37840
C1469       C  0.03359483  0.68972356  0.51653472     0.36270
C1470       C  0.90646673  0.62748897  0.47194611     0.36270
N1471       N  0.05578531  0.69134006  0.53974572    -0.38550
N1472       N  0.87728724  0.61489739  0.47108793    -0.38550
N1473       N  0.06761328  0.60567664  0.47834333    -0.38000
N1474       N  0.89033156  0.71418344  0.43225651    -0.38000
C1475       C  0.71554505  0.91116319  0.46196542    -0.04670
C1476       C  0.69385341  0.91451972  0.43022934    -0.01780
C1477       C  0.65598414  0.91395546  0.43367695     0.03210
C1478       C  0.64031620  0.90321396  0.46801897    -0.04660
C1479       C  0.66233367  0.88502489  0.49367646    -0.01770
C1480       C  0.70012140  0.88723622  0.49002197     0.03200
C1481       C  0.70953840  0.91013750  0.39426026     0.37850
C1482       C  0.64696799  0.86726749  0.52556179     0.37840
C1483       C  0.72239672  0.86892395  0.51793061     0.36270
C1484       C  0.63561179  0.93272107  0.40513838     0.36270
N1485       N  0.73932878  0.85351160  0.54005849    -0.38550
N1486       N  0.62063135  0.94954126  0.38271221    -0.38550
N1487       N  0.63621577  0.85296605  0.55168354    -0.38000
N1488       N  0.72109528  0.90547866  0.36506250    -0.38000
C1489       C  0.89662207  0.87130958  0.34903481    -0.04670
C1490       C  0.92971443  0.89064468  0.36133144    -0.01780
C1491       C  0.95543520  0.90838534  0.33661254     0.03210
C1492       C  0.94960914  0.91197291  0.29724475    -0.04660
C1493       C  0.91796376  0.89079540  0.28440433    -0.01770
C1494       C  0.89217104  0.87276576  0.30885988     0.03200
C1495       C  0.93820346  0.89394238  0.40078877     0.37850
C1496       C  0.91129264  0.88424481  0.24494006     0.37840
C1497       C  0.86017520  0.85801958  0.28946185     0.36270
C1498       C  0.99067669  0.91726221  0.35289447     0.36270
N1499       N  0.83598057  0.84895648  0.27012933    -0.38550
N1500       N  0.01810387  0.91998860  0.36899111    -0.38550
N1501       N  0.90404941  0.87751856  0.21411264    -0.38000
N1502       N  0.94637692  0.89799323  0.43175957    -0.38000
C1503       C  0.90148873  0.82192241  0.40485164    -0.04670
C1504       C  0.90367288  0.82248677  0.44518294    -0.01780
C1505       C  0.92826310  0.79951931  0.46716226     0.03210
C1506       C  0.95527473  0.77548414  0.45139897    -0.04660
C1507       C  0.96023134  0.78530127  0.41283665    -0.01770
C1508       C  0.93353633  0.80474486  0.39028644     0.03200
C1509       C  0.88668951  0.85210749  0.46594052     0.37850
C1510       C  0.99620638  0.78627823  0.39746670     0.37840
C1511       C  0.94105993  0.80740851  0.35086688     0.36270
C1512       C  0.92895222  0.80723074  0.50680567     0.36270
N1513       N  0.94740474  0.80817591  0.31960105    -0.38550
N1514       N  0.92821216  0.81496892  0.53807471    -0.38550
N1515       N  0.02425568  0.78959361  0.38382782    -0.38000
N1516       N  0.87506605  0.87589060  0.48391710    -0.38000
C1517       C  0.84420815  0.87120382  0.40514925    -0.04670
C1518       C  0.84196904  0.91149238  0.40835389    -0.01780
C1519       C  0.81466746  0.93146398  0.43018106     0.03210
C1520       C  0.78556002  0.91375462  0.45098420    -0.04660
C1521       C  0.78717772  0.87291724  0.44474169    -0.01770
C1522       C  0.81658650  0.85339791  0.42648166     0.03200
C1523       C  0.86731136  0.93485390  0.38877399     0.37850
C1524       C  0.75635562  0.84794555  0.44935188     0.37840
C1525       C  0.81773212  0.81287289  0.42939355     0.36270
C1526       C  0.81651771  0.97170685  0.42721958     0.36270
N1527       N  0.81841171  0.78074794  0.43198940    -0.38550
N1528       N  0.81968965  0.00350866  0.42265295    -0.38550
N1529       N  0.73331472  0.82547110  0.45002036    -0.38000
N1530       N  0.88643919  0.95618676  0.37487636    -0.38000
C1531       C  0.84306815  0.81643594  0.35343783    -0.04670
C1532       C  0.80809078  0.82884837  0.34014294    -0.01780
C1533       C  0.78098065  0.80505000  0.32104558     0.03210
C1534       C  0.78771231  0.76743588  0.30696279    -0.04660
C1535       C  0.82186265  0.75437389  0.32150335    -0.01770
C1536       C  0.84776946  0.77720838  0.34395875     0.03200
C1537       C  0.80059479  0.86865165  0.34103386     0.37850
C1538       C  0.83107471  0.71542735  0.31649525     0.37840
C1539       C  0.87940747  0.75715713  0.35560326     0.36270
C1540       C  0.74518557  0.82103225  0.31996495     0.36270
N1541       N  0.90301027  0.73699375  0.36111224    -0.38550
N1542       N  0.71717908  0.83508272  0.32088701    -0.38550
N1543       N  0.84055262  0.68482208  0.31550793    -0.38000
N1544       N  0.79470621  0.90019884  0.33970012    -0.38000
C1545       C  0.55257218  0.21664116  0.48885148    -0.04670
C1546       C  0.53521832  0.20479478  0.45437740    -0.01780
C1547       C  0.50393625  0.22270353  0.44004537     0.03210
C1548       C  0.48556711  0.24910449  0.46175519    -0.04660
C1549       C  0.50987683  0.26908565  0.48748570    -0.01770
C1550       C  0.54085527  0.25118792  0.50343713     0.03200
C1551       C  0.54966039  0.17418362  0.43275312     0.37850
C1552       C  0.50067827  0.30607188  0.50060738     0.37840
C1553       C  0.56006636  0.26818300  0.53498577     0.36270
C1554       C  0.50072010  0.22551148  0.40022178     0.36270
N1555       N  0.57550261  0.28196335  0.56007192    -0.38550
N1556       N  0.49983245  0.22859445  0.36833643    -0.38550
N1557       N  0.49374032  0.33570689  0.51112847    -0.38000
N1558       N  0.56193925  0.15035315  0.41535054    -0.38000
C1559       C  0.70965303  0.04878893  0.47975689    -0.04670
C1560       C  0.70407929  0.03016459  0.44421458    -0.01780
C1561       C  0.72412726  0.99760709  0.43400827     0.03210
C1562       C  0.74920597  0.98163067  0.45920226    -0.04660
C1563       C  0.76403547  0.00948325  0.48525178    -0.01770
C1564       C  0.74135517  0.03816902  0.49943426     0.03200
C1565       C  0.67517117  0.04111884  0.41905123     0.37850
C1566       C  0.79894990  0.00380183  0.50343291     0.37840
C1567       C  0.74749036  0.05086976  0.53723776     0.36270
C1568       C  0.72813454  0.98976003  0.39498562     0.36270
N1569       N  0.75194811  0.05811030  0.56834809    -0.38550
N1570       N  0.73189032  0.98572281  0.36341524    -0.38550
N1571       N  0.82699151  0.00001754  0.51778888    -0.38000
N1572       N  0.65203324  0.04912970  0.39869732    -0.38000
C1573       C  0.88716637  0.19353394  0.49747955    -0.04670
C1574       C  0.90466658  0.17096596  0.52452682    -0.01780
C1575       C  0.94300324  0.16695595  0.52520059     0.03210
C1576       C  0.96500381  0.18986912  0.50271030    -0.04660
C1577       C  0.94517900  0.21358901  0.47672635    -0.01770
C1578       C  0.90772377  0.21124417  0.47157669     0.03200
C1579       C  0.88369676  0.15157646  0.55212307     0.37850
C1580       C  0.96039014  0.24232531  0.45387585     0.37840
C1581       C  0.89025631  0.22657931  0.43838705     0.36270
C1582       C  0.95836104  0.13880510  0.54871412     0.36270
N1583       N  0.87699237  0.23858782  0.41192130    -0.38550
N1584       N  0.96887524  0.11522912  0.56737031    -0.38550
N1585       N  0.96568755  0.26626016  0.43338194    -0.38000
N1586       N  0.86784529  0.13578891  0.57455983    -0.38000
C1587       C  0.75979882  0.26018282  0.72475334    -0.04670
C1588       C  0.76923601  0.22876967  0.70257999    -0.01780
C1589       C  0.74601940  0.21516292  0.67302158     0.03210
C1590       C  0.71895266  0.23805430  0.65718563    -0.04660
C1591       C  0.72059474  0.27639965  0.67029871    -0.01770
C1592       C  0.74132716  0.28742894  0.70303827     0.03200
C1593       C  0.80745293  0.22209540  0.69821418     0.37850
C1594       C  0.69812902  0.30449629  0.65338667     0.37840
C1595       C  0.73744031  0.32495186  0.71813710     0.36270
C1596       C  0.74865248  0.17640817  0.66240285     0.36270
N1597       N  0.73413282  0.35482852  0.73009375    -0.38550
N1598       N  0.75014608  0.14470641  0.65645918    -0.38550
N1599       N  0.67970016  0.32735004  0.64150128    -0.38000
N1600       N  0.83801473  0.21717203  0.69371106    -0.38000
C1601       C  0.71782452  0.96759413  0.58743044    -0.04670
C1602       C  0.69806560  0.97888977  0.55735969    -0.01780
C1603       C  0.70607898  0.96510885  0.52193273     0.03210
C1604       C  0.74027916  0.94597075  0.51346080    -0.04660
C1605       C  0.76261345  0.93867368  0.54460389    -0.01770
C1606       C  0.75082265  0.94790012  0.58116719     0.03200
C1607       C  0.66950888  0.00580459  0.56309284     0.37850
C1608       C  0.79672053  0.92027165  0.53948959     0.37840
C1609       C  0.77363403  0.93766774  0.61227400     0.36270
C1610       C  0.67746071  0.97302808  0.49533607     0.36270
N1611       N  0.79261905  0.92894117  0.63637706    -0.38550
N1612       N  0.65262473  0.98237433  0.47791253    -0.38550
N1613       N  0.82410514  0.90551784  0.53621482    -0.38000
N1614       N  0.64799427  0.02834299  0.56769220    -0.38000
C1615       C  0.73713808  0.14248063  0.75828172    -0.04670
C1616       C  0.71419551  0.15910512  0.78418529    -0.01780
C1617       C  0.72241733  0.19577189  0.79720103     0.03210
C1618       C  0.75311797  0.21559657  0.78220234    -0.04660
C1619       C  0.78181865  0.19267926  0.77263899    -0.01770
C1620       C  0.77322853  0.15764296  0.75606269     0.03200
C1621       C  0.68159886  0.13959251  0.79570818     0.37850
C1622       C  0.81903369  0.20598625  0.77758832     0.37840
C1623       C  0.80062016  0.14013743  0.73384157     0.36270
C1624       C  0.69764562  0.21278328  0.82299535     0.36270
N1625       N  0.82264913  0.12743191  0.71537612    -0.38550
N1626       N  0.67757753  0.22545651  0.84376596    -0.38550
N1627       N  0.84878612  0.21642139  0.78189389    -0.38000
N1628       N  0.65610890  0.12345225  0.80537280    -0.38000
C1629       C  0.75418537  0.21379941  0.22190935    -0.04670
C1630       C  0.77327712  0.23742956  0.25003264    -0.01780
C1631       C  0.80649504  0.25461855  0.24335330     0.03210
C1632       C  0.82694737  0.24179150  0.21453496    -0.04660
C1633       C  0.81013950  0.21805622  0.18673159    -0.01770
C1634       C  0.77433847  0.20360076  0.19066085     0.03200
C1635       C  0.76064359  0.24718283  0.28664051     0.37850
C1636       C  0.82795495  0.20986208  0.15252069     0.37840
C1637       C  0.75911765  0.17837084  0.16236093     0.36270
C1638       C  0.82021921  0.28558075  0.26725223     0.36270
N1639       N  0.74822277  0.15834186  0.13902088    -0.38550
N1640       N  0.83121104  0.30950231  0.28659151    -0.38550
N1641       N  0.84009737  0.20161572  0.12440690    -0.38000
N1642       N  0.75574741  0.25882633  0.31618346    -0.38000
C1643       C  0.68640641  0.18083849  0.19536952    -0.04670
C1644       C  0.65747200  0.19316462  0.17143387    -0.01780
C1645       C  0.63825234  0.16902374  0.14432179     0.03210
C1646       C  0.64129410  0.12835226  0.14275866    -0.04660
C1647       C  0.67098042  0.11725839  0.16602153    -0.01770
C1648       C  0.68756083  0.14047353  0.19470401     0.03200
C1649       C  0.64297041  0.23021600  0.17658164     0.37850
C1650       C  0.69180584  0.08501102  0.15649522     0.37840
C1651       C  0.69661530  0.11918585  0.22705266     0.36270
C1652       C  0.62086792  0.18965783  0.11491164     0.36270
N1653       N  0.70096628  0.09942577  0.25174664    -0.38550
N1654       N  0.60848458  0.20862282  0.09250226    -0.38550
N1655       N  0.71033541  0.06046111  0.14909455    -0.38000
N1656       N  0.63023948  0.25933453  0.17973421    -0.38000
C1657       C  0.71703489  0.19864235  0.33999458    -0.04670
C1658       C  0.74021643  0.17509684  0.32050786    -0.01780
C1659       C  0.73535239  0.17096948  0.28192536     0.03210
C1660       C  0.70705865  0.19166723  0.26323902    -0.04660
C1661       C  0.67784315  0.20156376  0.28478827    -0.01770
C1662       C  0.68443315  0.21025883  0.32235494     0.03200
C1663       C  0.77217571  0.16014716  0.33878206     0.37850
C1664       C  0.64155507  0.20176437  0.26861925     0.37840
C1665       C  0.66167483  0.23788936  0.33885882     0.36270
C1666       C  0.76244285  0.14968989  0.26214470     0.36270
N1667       N  0.64332807  0.26183892  0.34844793    -0.38550
N1668       N  0.78391116  0.13248383  0.24678334    -0.38550
N1669       N  0.61241318  0.20116272  0.25596659    -0.38000
N1670       N  0.79813438  0.14868180  0.35269492    -0.38000
C1671       C  0.72394667  0.62690442  0.27612082    -0.04670
C1672       C  0.72216014  0.64525520  0.31167665    -0.01780
C1673       C  0.74249894  0.67887478  0.31916475     0.03210
C1674       C  0.76109799  0.69651675  0.29045780    -0.04660
C1675       C  0.77429059  0.67013322  0.26353563    -0.01770
C1676       C  0.75201619  0.63916472  0.25265815     0.03200
C1677       C  0.70000194  0.63009739  0.34073043     0.37850
C1678       C  0.80672252  0.67739673  0.24236094     0.37840
C1679       C  0.75000429  0.63024720  0.21327031     0.36270
C1680       C  0.75188163  0.68983020  0.35693371     0.36270
N1681       N  0.74589309  0.62681689  0.18149587    -0.38550
N1682       N  0.76022345  0.69783342  0.38718123    -0.38550
N1683       N  0.83270687  0.68189330  0.22536742    -0.38000
N1684       N  0.68243678  0.61789097  0.36401259    -0.38000
C1685       C  0.57741454  0.45687956  0.26146239    -0.04670
C1686       C  0.56385128  0.48292926  0.28757783    -0.01780
C1687       C  0.52800431  0.47816481  0.30127941     0.03210
C1688       C  0.50473595  0.44867864  0.28694664    -0.04660
C1689       C  0.52444460  0.41658204  0.27576002    -0.01770
C1690       C  0.55891792  0.42153288  0.25921147     0.03200
C1691       C  0.58481463  0.51624081  0.29809137     0.37850
C1692       C  0.50601330  0.38055388  0.27264582     0.37840
C1693       C  0.57234910  0.39158410  0.23602441     0.36270
C1694       C  0.52104188  0.49521151  0.33691179     0.36270
N1695       N  0.58257096  0.36765900  0.21726034    -0.38550
N1696       N  0.51741501  0.50851133  0.36603241    -0.38550
N1697       N  0.49207001  0.35144020  0.26952805    -0.38000
N1698       N  0.60075497  0.54331807  0.30656965    -0.38000
C1699       C  0.74890627  0.32077457  0.23233862    -0.04670
C1700       C  0.74626068  0.30276774  0.19658006    -0.01780
C1701       C  0.72132050  0.27214366  0.18923642     0.03210
C1702       C  0.70404679  0.25334897  0.21921141    -0.04660
C1703       C  0.69764103  0.27829878  0.24943645    -0.01770
C1704       C  0.72182731  0.30937246  0.25772191     0.03200
C1705       C  0.77088909  0.31345369  0.16757769     0.37850
C1706       C  0.66082806  0.28195670  0.26155142     0.37840
C1707       C  0.72037718  0.32649446  0.29425692     0.36270
C1708       C  0.71855677  0.25613536  0.15210786     0.36270
N1709       N  0.71997809  0.33896491  0.32402469    -0.38550
N1710       N  0.71630808  0.24395448  0.12221363    -0.38550
N1711       N  0.63114033  0.28649223  0.27020969    -0.38000
N1712       N  0.79061543  0.32156392  0.14436473    -0.38000
C1713       C  0.90085106  0.50708492  0.23958058    -0.04670
C1714       C  0.91298754  0.49161722  0.20567033    -0.01780
C1715       C  0.94792567  0.50217148  0.19263507     0.03210
C1716       C  0.97323570  0.52161832  0.21686955    -0.04660
C1717       C  0.95585846  0.54774383  0.23935060    -0.01770
C1718       C  0.92108161  0.53907077  0.25351594     0.03200
C1719       C  0.89143056  0.46365847  0.18529937     0.37850
C1720       C  0.96869908  0.58610340  0.23896430     0.37840
C1721       C  0.90685059  0.56325569  0.28211397     0.36270
C1722       C  0.95617442  0.49590021  0.15421752     0.36270
N1723       N  0.89556666  0.58267413  0.30489822    -0.38550
N1724       N  0.96057088  0.49207512  0.12273325    -0.38550
N1725       N  0.97814172  0.61707959  0.23830493    -0.38000
N1726       N  0.87443589  0.44126944  0.16875786    -0.38000
C1727       C  0.76097749  0.48317237  0.52190176    -0.04670
C1728       C  0.78253387  0.46879907  0.55091263    -0.01780
C1729       C  0.81154412  0.44432902  0.54269509     0.03210
C1730       C  0.82431439  0.43987356  0.50541817    -0.04660
C1731       C  0.80845204  0.46364083  0.47894578    -0.01770
C1732       C  0.78205006  0.48953133  0.49001467     0.03200
C1733       C  0.77782881  0.48235017  0.58850664     0.37850
C1734       C  0.82342640  0.46685251  0.44231468     0.37840
C1735       C  0.79134419  0.52803881  0.48238428     0.36270
C1736       C  0.82793911  0.42509548  0.57355452     0.36270
N1737       N  0.79966452  0.55862697  0.47636288    -0.38550
N1738       N  0.84035396  0.41043241  0.59899725    -0.38550
N1739       N  0.83594489  0.46888693  0.41325798    -0.38000
N1740       N  0.77499899  0.49377414  0.61848903    -0.38000
C1741       C  0.70599475  0.48769399  0.47755411    -0.04670
C1742       C  0.70488851  0.45878649  0.45009126    -0.01780
C1743       C  0.73356760  0.45656681  0.42549610     0.03210
C1744       C  0.74614021  0.48985042  0.40989143    -0.04660
C1745       C  0.73313287  0.52388489  0.42677203    -0.01770
C1746       C  0.71356720  0.52254871  0.46094317     0.03200
C1747       C  0.67020797  0.45374574  0.43081134     0.37850
C1748       C  0.74308807  0.56028565  0.41287584     0.37840
C1749       C  0.70090374  0.55640860  0.47777588     0.36270
C1750       C  0.74576740  0.42061002  0.41284836     0.36270
N1751       N  0.69015690  0.58404321  0.48974323    -0.38550
N1752       N  0.75718654  0.39273875  0.40196483    -0.38550
N1753       N  0.75139443  0.58982875  0.40330574    -0.38000
N1754       N  0.64264962  0.45006095  0.41503547    -0.38000
C1755       C  0.69496053  0.50928449  0.54844360    -0.04670
C1756       C  0.71014520  0.54254180  0.56645725    -0.01780
C1757       C  0.68981302  0.56680531  0.59159740     0.03210
C1758       C  0.65058211  0.56480869  0.59554882    -0.04660
C1759       C  0.63531526  0.53492590  0.57231247    -0.01770
C1760       C  0.65677023  0.50572965  0.55545077     0.03200
C1761       C  0.74705399  0.55425994  0.55884685     0.37850
C1762       C  0.59660350  0.53150495  0.56556857     0.37840
C1763       C  0.63916109  0.46943638  0.55339466     0.36270
C1764       C  0.71127080  0.59551974  0.61062099     0.36270
N1765       N  0.62326227  0.44149026  0.55611310    -0.38550
N1766       N  0.73145544  0.61756608  0.62326376    -0.38550
N1767       N  0.56651749  0.52590744  0.55704786    -0.38000
N1768       N  0.77630722  0.56554422  0.55464335    -0.38000
C1769       C  0.70826570  0.43637166  0.52989860    -0.04670
C1770       C  0.69484693  0.40961414  0.50346140    -0.01780
C1771       C  0.71653444  0.37937698  0.49275914     0.03210
C1772       C  0.74405172  0.36666907  0.51721447    -0.04660
C1773       C  0.74518261  0.38471678  0.55314291    -0.01770
C1774       C  0.72517420  0.41796746  0.55976013     0.03200
C1775       C  0.65653456  0.40756350  0.49368188     0.37850
C1776       C  0.76442064  0.36861657  0.58424418     0.37840
C1777       C  0.71739363  0.42938576  0.59726011     0.36270
C1778       C  0.70710898  0.36006498  0.45838572     0.36270
N1779       N  0.71158278  0.43679226  0.62784480    -0.38550
N1780       N  0.69947524  0.34606060  0.43012431    -0.38550
N1781       N  0.77932812  0.35617670  0.60957723    -0.38000
N1782       N  0.62605753  0.40453775  0.48541730    -0.38000
C1783       C  0.46764311  0.69515590  0.97515844    -0.04670
C1784       C  0.45476857  0.67207141  0.00370875    -0.01780
C1785       C  0.47482550  0.64089864  0.01432305     0.03210
C1786       C  0.50282365  0.62778292  0.99115204    -0.04660
C1787       C  0.50568506  0.64391835  0.95539529    -0.01770
C1788       C  0.48481620  0.67525096  0.94615580     0.03200
C1789       C  0.41609005  0.66907650  0.00939862     0.37850
C1790       C  0.53443255  0.63322928  0.93067635     0.37840
C1791       C  0.48784447  0.69161146  0.90984358     0.36270
C1792       C  0.46856967  0.62638578  0.05090338     0.36270
N1793       N  0.49012502  0.70420953  0.88065634    -0.38550
N1794       N  0.46383689  0.61615442  0.08070229    -0.38550
N1795       N  0.55772541  0.62533917  0.91118069    -0.38000
N1796       N  0.38515236  0.66531392  0.01350842    -0.38000
C1797       C  0.44636787  0.91817218  0.72363578    -0.04670
C1798       C  0.42097340  0.93078699  0.69770825    -0.01780
C1799       C  0.43302418  0.94623525  0.66429190     0.03210
C1800       C  0.46966946  0.94084603  0.65269125    -0.04660
C1801       C  0.48934344  0.91329881  0.67215203    -0.01770
C1802       C  0.47649317  0.90015407  0.70651816     0.03200
C1803       C  0.38487521  0.91439776  0.69820934     0.37850
C1804       C  0.52515971  0.90238567  0.66097664     0.37840
C1805       C  0.49894208  0.87451869  0.72721612     0.36270
C1806       C  0.40979906  0.97380914  0.64804839     0.36270
N1807       N  0.51710805  0.85391917  0.74309024    -0.38550
N1808       N  0.39203536  0.99768818  0.63719767    -0.38550
N1809       N  0.55421696  0.89362759  0.65371500    -0.38000
N1810       N  0.35621077  0.90055264  0.69802538    -0.38000
C1811       C  0.49459819  0.94778645  0.76311377    -0.04670
C1812       C  0.52141362  0.93516115  0.78825679    -0.01780
C1813       C  0.55813258  0.94929187  0.78725886     0.03210
C1814       C  0.57044745  0.97378079  0.75860198    -0.04660
C1815       C  0.54522693  0.98361071  0.73164987    -0.01770
C1816       C  0.50821929  0.97345808  0.73504468     0.03200
C1817       C  0.51169796  0.90810321  0.81587404     0.37850
C1818       C  0.55675625  0.00753921  0.70144249     0.37840
C1819       C  0.48543747  0.99362243  0.70966727     0.36270
C1820       C  0.58259195  0.93772913  0.81656608     0.36270
N1821       N  0.47210879  0.01266098  0.68786371    -0.38550
N1822       N  0.60032176  0.92714500  0.84088738    -0.38550
N1823       N  0.56543721  0.02659477  0.67747320    -0.38000
N1824       N  0.50512238  0.88639393  0.83825153    -0.38000
C1825       C  0.34593409  0.86373293  0.90673823    -0.04670
C1826       C  0.34586719  0.87048790  0.94651460    -0.01780
C1827       C  0.32258899  0.89779666  0.96416024     0.03210
C1828       C  0.29368936  0.91589597  0.94478572    -0.04660
C1829       C  0.29865502  0.91426643  0.90551707    -0.01770
C1830       C  0.32077994  0.88718188  0.88723277     0.03200
C1831       C  0.36935608  0.85025460  0.97120161     0.37850
C1832       C  0.29249265  0.94740593  0.88439872     0.37840
C1833       C  0.31823640  0.88523151  0.84693300     0.36270
C1834       C  0.33333516  0.91135282  0.00094492     0.36270
N1835       N  0.31601059  0.88398679  0.81489358    -0.38550
N1836       N  0.34259077  0.92104121  0.03049799    -0.38550
N1837       N  0.29220291  0.97354227  0.86602316    -0.38000
N1838       N  0.38719248  0.83512711  0.99276144    -0.38000
C1839       C  0.39983565  0.81144562  0.90961183    -0.04670
C1840       C  0.43419494  0.82491457  0.92480293    -0.01780
C1841       C  0.45576440  0.80348620  0.95047750     0.03210
C1842       C  0.45153483  0.76374004  0.95399042    -0.04660
C1843       C  0.41794369  0.75000035  0.93641154    -0.01770
C1844       C  0.39102876  0.77449855  0.92158401     0.03200
C1845       C  0.44820542  0.86187972  0.91685071     0.37850
C1846       C  0.40838501  0.71065237  0.93219792     0.37840
C1847       C  0.35386527  0.76025893  0.92104190     0.36270
C1848       C  0.48108903  0.82495042  0.97379590     0.36270
N1849       N  0.32540700  0.74606735  0.92213509    -0.38550
N1850       N  0.49891499  0.84660939  0.99034611    -0.38550
N1851       N  0.39935788  0.67983473  0.92694651    -0.38000
N1852       N  0.46244116  0.89040329  0.91195407    -0.38000
C1853       C  0.39712217  0.86209749  0.85517122    -0.04670
C1854       C  0.39855533  0.90216643  0.85702812    -0.01780
C1855       C  0.40997414  0.92467966  0.82675263     0.03210
C1856       C  0.43146504  0.91057746  0.79606982    -0.04660
C1857       C  0.43048628  0.87037765  0.79536677    -0.01770
C1858       C  0.41950390  0.84837939  0.82624138     0.03200
C1859       C  0.39355175  0.92232374  0.89194091     0.37850
C1860       C  0.43147327  0.84914435  0.76107794     0.37840
C1861       C  0.44304756  0.81764132  0.83300896     0.36270
C1862       C  0.39269979  0.96077594  0.82730377     0.36270
N1863       N  0.46453797  0.79486588  0.83668941    -0.38550
N1864       N  0.37799102  0.98893091  0.82986201    -0.38550
N1865       N  0.43021639  0.83065710  0.73442272    -0.38000
N1866       N  0.39048662  0.93946993  0.91914726    -0.38000
C1867       C  0.64791319  0.73707378  0.26255530    -0.04670
C1868       C  0.66674077  0.76618330  0.24455187    -0.01780
C1869       C  0.70091893  0.77866825  0.25918619     0.03210
C1870       C  0.71848309  0.75668381  0.28712981    -0.04660
C1871       C  0.69444853  0.74106498  0.31199745    -0.01770
C1872       C  0.66075026  0.72739229  0.29864881     0.03200
C1873       C  0.65521738  0.77886427  0.20842879     0.37850
C1874       C  0.69949304  0.74932103  0.35112938     0.37840
C1875       C  0.64330006  0.69942292  0.32064748     0.36270
C1876       C  0.72073527  0.80817489  0.24055626     0.36270
N1877       N  0.63186546  0.67698793  0.34009306    -0.38550
N1878       N  0.73636319  0.83169525  0.22566501    -0.38550
N1879       N  0.70274769  0.75684939  0.38235859    -0.38000
N1880       N  0.64925274  0.78914112  0.17874991    -0.38000
C1881       C  0.47504130  0.56366207  0.23116470    -0.04670
C1882       C  0.44933530  0.54083918  0.21144961    -0.01780
C1883       C  0.43598150  0.50723041  0.22699652     0.03210
C1884       C  0.44987452  0.49459009  0.26253730    -0.04660
C1885       C  0.46257865  0.52386296  0.28524795    -0.01770
C1886       C  0.48029919  0.55519695  0.26968099     0.03200
C1887       C  0.43843528  0.55048931  0.17392226     0.37850
C1888       C  0.44951751  0.52548535  0.32271299     0.37840
C1889       C  0.50752929  0.57307798  0.29322877     0.36270
C1890       C  0.40979666  0.48573203  0.20451556     0.36270
N1891       N  0.52917723  0.58491552  0.31415165    -0.38550
N1892       N  0.38846974  0.47030399  0.18548061    -0.38550
N1893       N  0.43831948  0.52689707  0.35242180    -0.38000
N1894       N  0.42970498  0.55818655  0.14409131    -0.38000
C1895       C  0.48234366  0.72625273  0.09415669    -0.04670
C1896       C  0.44741213  0.72528323  0.07645098    -0.01780
C1897       C  0.44248077  0.74313601  0.04214280     0.03210
C1898       C  0.47342434  0.75314479  0.02225504    -0.04660
C1899       C  0.50330847  0.76697853  0.04528469    -0.01770
C1900       C  0.50853417  0.75179020  0.08075760     0.03200
C1901       C  0.41771417  0.70295382  0.09068521     0.37850
C1902       C  0.53243347  0.79079262  0.03190453     0.37840
C1903       C  0.54373324  0.75726177  0.09925412     0.36270
C1904       C  0.40653897  0.74910344  0.02671809     0.36270
N1905       N  0.57258705  0.76162027  0.11211305    -0.38550
N1906       N  0.37750035  0.75377249  0.01509207    -0.38550
N1907       N  0.55704549  0.80891077  0.02303308    -0.38000
N1908       N  0.39398761  0.68500781  0.10182848    -0.38000
C1909       C  0.50631309  0.88440000  0.25484632    -0.04670
C1910       C  0.53645682  0.89945656  0.23439636    -0.01780
C1911       C  0.53584076  0.93643265  0.21962195     0.03210
C1912       C  0.51201938  0.96294750  0.23432826    -0.04660
C1913       C  0.48461931  0.94677178  0.25868039    -0.01770
C1914       C  0.47799595  0.90819041  0.26098118     0.03200
C1915       C  0.57009909  0.88006246  0.23054046     0.37850
C1916       C  0.46356113  0.96670714  0.28533309     0.37840
C1917       C  0.44372128  0.89388783  0.27530367     0.36270
C1918       C  0.56210908  0.94754494  0.19246020     0.36270
N1919       N  0.41648403  0.88277353  0.28663489    -0.38550
N1920       N  0.58339546  0.95556885  0.17071563    -0.38550
N1921       N  0.44420845  0.97618446  0.30838336    -0.38000
N1922       N  0.59892828  0.86861860  0.22660276    -0.38000
C1923       C  0.34670292  0.80637307  0.85719535    -0.04670
C1924       C  0.35995813  0.77961103  0.83101433    -0.01780
C1925       C  0.33772023  0.76240180  0.80203135     0.03210
C1926       C  0.29865990  0.76072802  0.80274539    -0.04660
C1927       C  0.28492076  0.78478229  0.83208935    -0.01770
C1928       C  0.30794223  0.80289345  0.85994347     0.03200
C1929       C  0.39138949  0.75801280  0.84037700     0.37850
C1930       C  0.24720879  0.79547636  0.83462076     0.37840
C1931       C  0.29064360  0.81197898  0.89464734     0.36270
C1932       C  0.35776253  0.74983037  0.77033842     0.36270
N1933       N  0.27665763  0.81848028  0.92231359    -0.38550
N1934       N  0.37647546  0.74266176  0.74596531    -0.38550
N1935       N  0.21769837  0.80514645  0.83853247    -0.38000
N1936       N  0.41454096  0.73764441  0.84697414    -0.38000
C1937       C  0.99048256  0.70676193  0.58651164    -0.04670
C1938       C  0.95751755  0.70215641  0.56559538    -0.01780
C1939       C  0.94882122  0.72703463  0.53673927     0.03210
C1940       C  0.97667602  0.74981264  0.52065369    -0.04660
C1941       C  0.00352435  0.76175527  0.54744275    -0.01770
C1942       C  0.01180106  0.73933781  0.57878989     0.03200
C1943       C  0.93291335  0.67083071  0.57169710     0.37850
C1944       C  0.01195788  0.80118751  0.55115866     0.37840
C1945       C  0.04359177  0.74905242  0.60158373     0.36270
C1946       C  0.91154729  0.72798370  0.52327752     0.36270
N1947       N  0.06921732  0.75584007  0.61976187    -0.38550
N1948       N  0.88125386  0.72897219  0.51422453    -0.38550
N1949       N  0.01799090  0.83276364  0.55580927    -0.38000
N1950       N  0.91324134  0.64577213  0.57606349    -0.38000
C1951       C  0.16191233  0.72196463  0.75689683    -0.04670
C1952       C  0.17586440  0.75581855  0.74247093    -0.01780
C1953       C  0.21081428  0.76897234  0.75371924     0.03210
C1954       C  0.23199974  0.74709811  0.77795732    -0.04660
C1955       C  0.21122834  0.72475141  0.80279685    -0.01770
C1956       C  0.17823086  0.70862981  0.78969762     0.03200
C1957       C  0.15488020  0.77653551  0.71555985     0.37850
C1958       C  0.22683518  0.71259352  0.83774379     0.37840
C1959       C  0.16204327  0.67729838  0.80884654     0.36270
C1960       C  0.21790821  0.80870588  0.75189718     0.36270
N1961       N  0.14928841  0.65207055  0.82378578    -0.38550
N1962       N  0.22180738  0.84081342  0.75113567    -0.38550
N1963       N  0.23889688  0.70296079  0.86577387    -0.38000
N1964       N  0.13844710  0.79313546  0.69396273    -0.38000
C1965       C  0.23496719  0.45286945  0.58441717    -0.04670
C1966       C  0.21083956  0.47422102  0.56470826    -0.01780
C1967       C  0.21563289  0.47965932  0.52670908     0.03210
C1968       C  0.24059308  0.45753503  0.50435975    -0.04660
C1969       C  0.26526085  0.43606192  0.52524481    -0.01770
C1970       C  0.26411301  0.43622191  0.56478231     0.03200
C1971       C  0.18024137  0.49118817  0.58349697     0.37850
C1972       C  0.29480180  0.41747529  0.50739979     0.37840
C1973       C  0.29572128  0.42322209  0.58485008     0.36270
C1974       C  0.19218041  0.50839902  0.51316937     0.36270
N1975       N  0.32210879  0.41384835  0.59952470    -0.38550
N1976       N  0.17124433  0.53180449  0.50949164    -0.38550
N1977       N  0.31986073  0.40394733  0.49436953    -0.38000
N1978       N  0.15545565  0.50462310  0.59719910    -0.38000
C1979       C  0.24848539  0.61328531  0.76929193    -0.04670
C1980       C  0.22925693  0.63727599  0.74740910    -0.01780
C1981       C  0.24067158  0.67455089  0.74517421     0.03210
C1982       C  0.26769042  0.69192379  0.77112424    -0.04660
C1983       C  0.28578450  0.66695432  0.79480923    -0.01770
C1984       C  0.27797604  0.62785129  0.79194414     0.03200
C1985       C  0.19595904  0.62393136  0.72809770     0.37850
C1986       C  0.31253477  0.68036498  0.82201656     0.37840
C1987       C  0.30193289  0.60283560  0.81119676     0.36270
C1988       C  0.22107490  0.69331594  0.71606231     0.36270
N1989       N  0.32241719  0.58416622  0.82645191    -0.38550
N1990       N  0.20210317  0.70257623  0.69208613    -0.38550
N1991       N  0.33375240  0.68951456  0.84464567    -0.38000
N1992       N  0.16939946  0.61404650  0.71294256    -0.38000
C1993       C  0.23846946  0.57149747  0.49840686    -0.04670
C1994       C  0.22072664  0.56472490  0.46356134    -0.01780
C1995       C  0.22891484  0.53240416  0.44228801     0.03210
C1996       C  0.25112459  0.50441021  0.45778437    -0.04660
C1997       C  0.27790131  0.51914675  0.48364328    -0.01770
C1998       C  0.26904629  0.54935154  0.50700851     0.03200
C1999       C  0.19141594  0.58801566  0.45115104     0.37850
C2000       C  0.31210263  0.50068729  0.48985057     0.37840
C2001       C  0.28954861  0.55470794  0.54163673     0.36270
C2002       C  0.22660856  0.53571276  0.40247846     0.36270
N2003       N  0.30574247  0.55855867  0.56931991    -0.38550
N2004       N  0.22562120  0.53994914  0.37074545    -0.38550
N2005       N  0.34016986  0.48751301  0.49482927    -0.38000
N2006       N  0.16694647  0.60540639  0.44162237    -0.38000
C2007       C  0.26110637  0.73577127  0.65931654    -0.04670
C2008       C  0.26295616  0.77166577  0.67717787    -0.01780
C2009       C  0.28014928  0.77562673  0.71232749     0.03210
C2010       C  0.28829602  0.74350174  0.73159574    -0.04660
C2011       C  0.30079761  0.71362284  0.70818959    -0.01770
C2012       C  0.28348643  0.70765664  0.67340839     0.03200
C2013       C  0.24380967  0.80321652  0.66255905     0.37850
C2014       C  0.32562117  0.68555825  0.72142824     0.37840
C2015       C  0.28334184  0.67057340  0.65644621     0.36270
C2016       C  0.29321442  0.81138167  0.72681756     0.36270
N2017       N  0.28311055  0.64073875  0.64363697    -0.38550
N2018       N  0.30427080  0.83984687  0.73826023    -0.38550
N2019       N  0.34540973  0.66291211  0.73127974    -0.38000
N2020       N  0.22796749  0.82864033  0.65210726    -0.38000
C2021       C  0.02359337  0.75253003  0.46227456    -0.04670
C2022       C  0.03953864  0.72665594  0.43630181    -0.01780
C2023       C  0.07407826  0.71147632  0.44459809     0.03210
C2024       C  0.09300755  0.72254332  0.47792718    -0.04660
C2025       C  0.08155025  0.75631735  0.49521700    -0.01770
C2026       C  0.04941245  0.77345641  0.48285087     0.03200
C2027       C  0.01797270  0.70954424  0.40597928     0.37850
C2028       C  0.09882841  0.77141627  0.52843275     0.37840
C2029       C  0.04798223  0.81360596  0.48098843     0.36270
C2030       C  0.08713407  0.68129866  0.42138697     0.36270
N2031       N  0.04712232  0.84573037  0.47855604    -0.38550
N2032       N  0.09729564  0.65725714  0.40273160    -0.38550
N2033       N  0.11133691  0.78330459  0.55588971    -0.38000
N2034       N  0.00095651  0.69568728  0.38196529    -0.38000
C2035       C  0.52240964  0.73480209  0.53297317    -0.04670
C2036       C  0.54765319  0.75496224  0.55611219    -0.01780
C2037       C  0.55251666  0.79433861  0.54955739     0.03210
C2038       C  0.53759959  0.80973220  0.51597689    -0.04660
C2039       C  0.51457246  0.78665545  0.49392155    -0.01770
C2040       C  0.49864701  0.75834208  0.51313044     0.03200
C2041       C  0.56020477  0.73886906  0.59022431     0.37850
C2042       C  0.49471698  0.80055767  0.46169799     0.37840
C2043       C  0.46803246  0.77296463  0.53292660     0.36270
C2044       C  0.56779477  0.81818367  0.57864618     0.36270
N2045       N  0.44489570  0.78739879  0.54846368    -0.38550
N2046       N  0.57976894  0.83586607  0.60323240    -0.38550
N2047       N  0.47908299  0.81223625  0.43641536    -0.38000
N2048       N  0.56846005  0.72706408  0.61874754    -0.38000
C2049       C  0.54545322  0.66242236  0.54740822    -0.04670
C2050       C  0.58400496  0.65774235  0.54119686    -0.01780
C2051       C  0.60768546  0.63508465  0.56415286     0.03210
C2052       C  0.59562967  0.61405416  0.59520975    -0.04660
C2053       C  0.55599613  0.61029519  0.59363334    -0.01770
C2054       C  0.53231226  0.63348015  0.57101019     0.03200
C2055       C  0.59980434  0.66798128  0.50638303     0.37850
C2056       C  0.53771227  0.57785873  0.60838364     0.37840
C2057       C  0.49441825  0.62154861  0.56728456     0.36270
C2058       C  0.64572641  0.63383994  0.55421149     0.36270
N2059       N  0.46467686  0.61051499  0.56476533    -0.38550
N2060       N  0.67586171  0.63588630  0.54595692    -0.38550
N2061       N  0.52127435  0.55206311  0.61798456    -0.38000
N2062       N  0.61489746  0.67215096  0.47887095    -0.38000
C2063       C  0.52886946  0.68731230  0.48140329    -0.04670
C2064       C  0.54563190  0.71677860  0.46087648    -0.01780
C2065       C  0.53182745  0.72529255  0.42545960     0.03210
C2066       C  0.50602337  0.70100749  0.40811993    -0.04660
C2067       C  0.50043654  0.66485016  0.42361908    -0.01770
C2068       C  0.51394174  0.65750050  0.45968838     0.03200
C2069       C  0.57621191  0.73912389  0.47565472     0.37850
C2070       C  0.47607395  0.63729565  0.40592400     0.37840
C2071       C  0.50799801  0.62120090  0.47575196     0.36270
C2072       C  0.54269733  0.76010609  0.40855348     0.36270
N2073       N  0.50344792  0.59169130  0.48752752    -0.38550
N2074       N  0.55164009  0.78839002  0.39627586    -0.38550
N2075       N  0.45654339  0.61487693  0.39273936    -0.38000
N2076       N  0.60101544  0.75687127  0.48634269    -0.38000
C2077       C  0.47474620  0.68680903  0.52702201    -0.04670
C2078       C  0.44967126  0.68809070  0.49520805    -0.01780
C2079       C  0.41204893  0.68811498  0.49963796     0.03210
C2080       C  0.40050135  0.71231721  0.52765669    -0.04660
C2081       C  0.42139469  0.71070335  0.56145445    -0.01770
C2082       C  0.45733929  0.69563546  0.56149077     0.03200
C2083       C  0.45443810  0.71417414  0.46559817     0.37850
C2084       C  0.40896396  0.72850560  0.59512683     0.37840
C2085       C  0.47794363  0.69656213  0.59618729     0.36270
C2086       C  0.38869249  0.67861126  0.46755428     0.36270
N2087       N  0.49314178  0.69691538  0.62458103    -0.38550
N2088       N  0.37161715  0.67259511  0.44075590    -0.38550
N2089       N  0.40053262  0.74331373  0.62227070    -0.38000
N2090       N  0.45050463  0.73637539  0.44305910    -0.38000
C2091       C  0.09602314  0.56154314  0.14964710    -0.04670
C2092       C  0.08182719  0.52413644  0.14273188    -0.01780
C2093       C  0.05368271  0.50666925  0.16538007     0.03210
C2094       C  0.04203569  0.52212957  0.20057797    -0.04660
C2095       C  0.05580146  0.55984495  0.20591986    -0.01770
C2096       C  0.07645695  0.57994547  0.17855635     0.03200
C2097       C  0.08993574  0.50564458  0.10797251     0.37850
C2098       C  0.05445798  0.57819799  0.24167858     0.37840
C2099       C  0.07881261  0.62040006  0.18192445     0.36270
C2100       C  0.03596609  0.47329672  0.14986162     0.36270
N2101       N  0.08051048  0.65261703  0.18464250    -0.38550
N2102       N  0.02328266  0.44629243  0.13655596    -0.38550
N2103       N  0.05734623  0.59494147  0.26928772    -0.38000
N2104       N  0.09471058  0.49033552  0.08004947    -0.38000
C2105       C  0.33744008  0.70127959  0.26585926    -0.04670
C2106       C  0.31347844  0.72395821  0.28343867    -0.01780
C2107       C  0.27780479  0.72563635  0.26975113     0.03210
C2108       C  0.26174587  0.69693157  0.24422461    -0.04660
C2109       C  0.28656841  0.67183264  0.22896029    -0.01770
C2110       C  0.32427824  0.67770720  0.23576499     0.03200
C2111       C  0.32583379  0.74663702  0.31550740     0.37850
C2112       C  0.27445905  0.64006541  0.20648258     0.37840
C2113       C  0.34881117  0.66391928  0.20801742     0.36270
C2114       C  0.25941412  0.75689670  0.28596905     0.36270
N2115       N  0.36766780  0.65419348  0.18465217    -0.38550
N2116       N  0.25067484  0.78312656  0.30248644    -0.38550
N2117       N  0.26593523  0.61362743  0.18937738    -0.38000
N2118       N  0.33543184  0.76480050  0.34076365    -0.38000
C2119       C  0.20612050  0.69323626  0.27831815    -0.04670
C2120       C  0.18221957  0.71812350  0.29521064    -0.01780
C2121       C  0.19202092  0.73600070  0.32971712     0.03210
C2122       C  0.22484408  0.72651209  0.34927840    -0.04660
C2123       C  0.24143898  0.69309494  0.33742592    -0.01770
C2124       C  0.22819436  0.67379114  0.30497601     0.03200
C2125       C  0.14434166  0.71522326  0.28422624     0.37850
C2126       C  0.27411122  0.67998313  0.35558562     0.37840
C2127       C  0.24347434  0.63789712  0.29546089     0.36270
C2128       C  0.16985783  0.76634880  0.34244807     0.36270
N2129       N  0.25563343  0.60917930  0.28841881    -0.38550
N2130       N  0.15205694  0.79076150  0.35208866    -0.38550
N2131       N  0.30075604  0.66908544  0.36861990    -0.38000
N2132       N  0.11378859  0.71180502  0.27648587    -0.38000
C2133       C  0.21720493  0.73544313  0.21568342    -0.04670
C2134       C  0.24642483  0.74714130  0.19228259    -0.01780
C2135       C  0.26474482  0.78172049  0.19959388     0.03210
C2136       C  0.25099429  0.80732868  0.22594118    -0.04660
C2137       C  0.21427125  0.80015053  0.23707835    -0.01770
C2138       C  0.19693545  0.76519184  0.22902280     0.03200
C2139       C  0.26153734  0.72164468  0.16527820     0.37850
C2140       C  0.19492427  0.82471366  0.26123917     0.37840
C2141       C  0.15819257  0.76401525  0.22193919     0.36270
C2142       C  0.29904601  0.78945024  0.18182976     0.36270
N2143       N  0.12736406  0.76394126  0.21504317    -0.38550
N2144       N  0.32636562  0.79553862  0.16763878    -0.38550
N2145       N  0.17795669  0.84191621  0.28168069    -0.38000
N2146       N  0.27373333  0.70195593  0.14325941    -0.38000
C2147       C  0.19724817  0.66331009  0.20828901    -0.04670
C2148       C  0.19258501  0.66569059  0.16834721    -0.01780
C2149       C  0.18186406  0.63422088  0.14506237     0.03210
C2150       C  0.15535926  0.60755383  0.15591315    -0.04660
C2151       C  0.15788557  0.60386888  0.19598305    -0.01770
C2152       C  0.17664248  0.63104149  0.22098639     0.03200
C2153       C  0.18460066  0.70063177  0.15109038     0.37850
C2154       C  0.14502036  0.57018591  0.21327958     0.37840
C2155       C  0.16941570  0.62626666  0.25995242     0.36270
C2156       C  0.21144886  0.61882502  0.12489162     0.36270
N2157       N  0.16170178  0.62096830  0.29039899    -0.38550
N2158       N  0.23579761  0.60608522  0.10983270    -0.38550
N2159       N  0.13504422  0.54429888  0.22912199    -0.38000
N2160       N  0.17727440  0.72816525  0.13666733    -0.38000
C2161       C  0.27205599  0.48898705  0.04464941    -0.04670
C2162       C  0.29157564  0.52068695  0.03254758    -0.01780
C2163       C  0.32464632  0.51502816  0.01278825     0.03210
C2164       C  0.33785901  0.47767721  0.00735640    -0.04660
C2165       C  0.32395587  0.45066700  0.03113657    -0.01770
C2166       C  0.29685885  0.46156163  0.05583976     0.03200
C2167       C  0.27607104  0.55723053  0.03596909     0.37850
C2168       C  0.34381955  0.41678736  0.03725480     0.37840
C2169       C  0.30652327  0.46081240  0.09490313     0.36270
C2170       C  0.34211539  0.54676539  0.99576302     0.36270
N2171       N  0.31455090  0.46038907  0.12607380    -0.38550
N2172       N  0.35536675  0.57242225  0.98199644    -0.38550
N2173       N  0.35996420  0.38976986  0.04145709    -0.38000
N2174       N  0.26433753  0.58686048  0.03792135    -0.38000
C2175       C  0.24621290  0.45014941  0.91612485    -0.04670
C2176       C  0.27295183  0.47052291  0.93648426    -0.01780
C2177       C  0.26175711  0.49476248  0.96492035     0.03210
C2178       C  0.23039145  0.48570684  0.98550392    -0.04660
C2179       C  0.20131216  0.47291188  0.96203437    -0.01770
C2180       C  0.20937497  0.45305993  0.92851487     0.03200
C2181       C  0.30919434  0.47490701  0.92210296     0.37850
C2182       C  0.16415823  0.47573177  0.97415742     0.37840
C2183       C  0.18035672  0.43103125  0.91084999     0.36270
C2184       C  0.26624974  0.53368622  0.95537924     0.36270
N2185       N  0.15655384  0.41246365  0.89930199    -0.38550
N2186       N  0.26997706  0.56454272  0.94700559    -0.38550
N2187       N  0.13443569  0.47805187  0.98358796    -0.38000
N2188       N  0.33777337  0.47852483  0.90975433    -0.38000
C2189       C  0.15234864  0.55512873  0.09944307    -0.04670
C2190       C  0.17320441  0.52427090  0.11323416    -0.01780
C2191       C  0.18868495  0.49625998  0.08877683     0.03210
C2192       C  0.20124914  0.50447318  0.05246714    -0.04660
C2193       C  0.18252774  0.53692546  0.03879616    -0.01770
C2194       C  0.15403198  0.55524842  0.05947457     0.03200
C2195       C  0.17493170  0.51544915  0.15191635     0.37850
C2196       C  0.18951710  0.55208336  0.00276008     0.37840
C2197       C  0.12247327  0.56600980  0.03800329     0.36270
C2198       C  0.17348415  0.45923606  0.09339829     0.36270
N2199       N  0.09692605  0.57304923  0.02051408    -0.38550
N2200       N  0.15936319  0.43036857  0.09681810    -0.38550
N2201       N  0.19321211  0.56557137  0.97414770    -0.38000
N2202       N  0.17884600  0.50468481  0.18171781    -0.38000
C2203       C  0.22597482  0.43268962  0.03324023    -0.04670
C2204       C  0.24324159  0.41030627  0.06066941    -0.01780
C2205       C  0.26779705  0.38146691  0.04972432     0.03210
C2206       C  0.27111784  0.37024964  0.01134621    -0.04660
C2207       C  0.24454653  0.38533945  0.98726624    -0.01770
C2208       C  0.21820020  0.40980697  0.00151242     0.03200
C2209       C  0.23904157  0.41815190  0.09986685     0.37850
C2210       C  0.24119342  0.37293414  0.94900110     0.37840
C2211       C  0.18059504  0.39862976  0.99557163     0.36270
C2212       C  0.29137603  0.36712118  0.07854172     0.36270
N2213       N  0.15037676  0.38980982  0.99140270    -0.38550
N2214       N  0.31009667  0.35871710  0.10302665    -0.38550
N2215       N  0.23969302  0.36285816  0.91834050    -0.38000
N2216       N  0.23644377  0.42327333  0.13147027    -0.38000
C2217       C  0.06414624  0.74833968  0.03982227    -0.04670
C2218       C  0.05934412  0.76957529  0.07191677    -0.01780
C2219       C  0.05608395  0.80861156  0.06871508     0.03210
C2220       C  0.06411608  0.82591121  0.03427367    -0.04660
C2221       C  0.08527510  0.80557765  0.00925802    -0.01770
C2222       C  0.08612916  0.76658975  0.01232509     0.03200
C2223       C  0.06228037  0.75182655  0.10752129     0.37850
C2224       C  0.10121575  0.82294831  0.97715604     0.37840
C2225       C  0.10600509  0.74608797  0.98432312     0.36270
C2226       C  0.03961471  0.82859601  0.09881615     0.36270
N2227       N  0.12260786  0.73089052  0.96197377    -0.38550
N2228       N  0.02498610  0.84271264  0.12318084    -0.38550
N2229       N  0.11367199  0.83601976  0.95108607    -0.38000
N2230       N  0.06529858  0.73752245  0.13590138    -0.38000
C2231       C  0.03468533  0.71651243  0.98682979    -0.04670
C2232       C  0.04548063  0.69233437  0.95808138    -0.01780
C2233       C  0.03641185  0.69996038  0.92005439     0.03210
C2234       C  0.01257686  0.72979412  0.90957722    -0.04660
C2235       C  0.00004597  0.75237366  0.93754923    -0.01770
C2236       C  0.01326551  0.74835243  0.97425001     0.03200
C2237       C  0.06876705  0.66163889  0.96697896     0.37850
C2238       C  0.97510497  0.78201832  0.92788966     0.37840
C2239       C  0.00258739  0.77836524  0.99819096     0.36270
C2240       C  0.05367270  0.67745327  0.89206611     0.36270
N2241       N  0.99001561  0.80241494  0.01485642    -0.38550
N2242       N  0.06888805  0.65921518  0.87093507    -0.38550
N2243       N  0.95526292  0.80534665  0.91999173    -0.38000
N2244       N  0.08791111  0.63728988  0.97329080    -0.38000
C2245       C  0.10560312  0.61555359  0.09855034    -0.04670
C2246       C  0.12302901  0.64335983  0.07591443    -0.01780
C2247       C  0.10421256  0.67365641  0.05742287     0.03210
C2248       C  0.06490358  0.67651219  0.05370428    -0.04660
C2249       C  0.04813063  0.64960608  0.07817211    -0.01770
C2250       C  0.06654719  0.61794678  0.09394662     0.03200
C2251       C  0.16010236  0.63871274  0.06445964     0.37850
C2252       C  0.01256834  0.65549756  0.09353896     0.37840
C2253       C  0.04285204  0.58581830  0.09933137     0.36270
C2254       C  0.12807428  0.70510803  0.05027860     0.36270
N2255       N  0.02198534  0.56149417  0.10216131    -0.38550
N2256       N  0.14970614  0.72880591  0.04782725    -0.38550
N2257       N  0.98451546  0.65887803  0.10695316    -0.38000
N2258       N  0.18849330  0.63667546  0.05150797    -0.38000
C2259       C  0.03275179  0.16372732  0.53077905    -0.04670
C2260       C  0.03448225  0.16777521  0.57044312    -0.01780
C2261       C  0.04998411  0.13999364  0.59432207     0.03210
C2262       C  0.08021459  0.11712806  0.58350852    -0.04660
C2263       C  0.08530269  0.12091952  0.54373859    -0.01770
C2264       C  0.05833577  0.13616911  0.51875375     0.03200
C2265       C  0.02869969  0.20333628  0.58864726     0.37850
C2266       C  0.12050082  0.11822327  0.52693435     0.37840
C2267       C  0.06112392  0.12407901  0.48037196     0.36270
C2268       C  0.03256246  0.13871506  0.62944256     0.36270
N2269       N  0.06475436  0.11312322  0.45032094    -0.38550
N2270       N  0.01434216  0.14166356  0.65501143    -0.38550
N2271       N  0.14739348  0.11832561  0.51090886    -0.38000
N2272       N  0.02764975  0.23091455  0.60575412    -0.38000
C2273       C  0.25882751  0.01447675  0.53099132    -0.04670
C2274       C  0.27704816  0.04252392  0.50920511    -0.01780
C2275       C  0.31486278  0.04227168  0.50643998     0.03210
C2276       C  0.33429834  0.01648371  0.52721840    -0.04660
C2277       C  0.31702366  0.99838502  0.55714944    -0.01770
C2278       C  0.27937612  0.00082008  0.56074681     0.03200
C2279       C  0.25700562  0.07045897  0.48890858     0.37850
C2280       C  0.33503636  0.97055510  0.57895935     0.37840
C2281       C  0.26408460  0.99941252  0.59727623     0.36270
C2282       C  0.33323526  0.06644068  0.48059069     0.36270
N2283       N  0.25246965  0.00001990  0.62683739    -0.38550
N2284       N  0.34779085  0.08558369  0.45982626    -0.38550
N2285       N  0.34766057  0.94674377  0.59581734    -0.38000
N2286       N  0.24161366  0.09329976  0.47308509    -0.38000
C2287       C  0.22776931  0.99657446  0.47519886    -0.04670
C2288       C  0.20647760  0.01358474  0.44758230    -0.01780
C2289       C  0.21530181  0.00885858  0.40959047     0.03210
C2290       C  0.24288054  0.98358271  0.39830569    -0.04660
C2291       C  0.25982409  0.96253002  0.42462981    -0.01770
C2292       C  0.25728654  0.97325121  0.46166676     0.03200
C2293       C  0.17559516  0.03562751  0.45752950     0.37850
C2294       C  0.28256674  0.93137839  0.41375512     0.37840
C2295       C  0.28729542  0.95936940  0.48354338     0.36270
C2296       C  0.19471476  0.02952356  0.38252912     0.36270
N2297       N  0.31306161  0.94572903  0.49561773    -0.38550
N2298       N  0.17731965  0.04689096  0.36242278    -0.38550
N2299       N  0.30041710  0.90638300  0.40590857    -0.38000
N2300       N  0.15015609  0.05268114  0.46414908    -0.38000
C2301       C  0.21244849  0.95380200  0.52309492    -0.04670
C2302       C  0.23629863  0.93094907  0.54347965    -0.01780
C2303       C  0.25419990  0.90069135  0.52592247     0.03210
C2304       C  0.24227178  0.88692219  0.49051305    -0.04660
C2305       C  0.21012946  0.90235452  0.47560273    -0.01770
C2306       C  0.19363880  0.93331929  0.49300604     0.03200
C2307       C  0.23002565  0.92756701  0.58260171     0.37850
C2308       C  0.19480298  0.88775182  0.44056536     0.37840
C2309       C  0.16213364  0.94808043  0.47369295     0.36270
C2310       C  0.28671115  0.88677400  0.54350684     0.36270
N2311       N  0.13680669  0.95843689  0.45768243    -0.38550
N2312       N  0.31290886  0.87656160  0.55798819    -0.38550
N2313       N  0.18245910  0.87604135  0.41288695    -0.38000
N2314       N  0.22430448  0.92346650  0.61370597    -0.38000
C2315       C  0.18997689  0.02513227  0.54056487    -0.04670
C2316       C  0.19934568  0.05964732  0.56166958    -0.01780
C2317       C  0.17326586  0.08243867  0.58006943     0.03210
C2318       C  0.13641159  0.07087120  0.58548011    -0.04660
C2319       C  0.12570339  0.04043287  0.56120607    -0.01770
C2320       C  0.15169154  0.01564837  0.54442616     0.03200
C2321       C  0.23610346  0.07409767  0.56870140     0.37850
C2322       C  0.08715623  0.03239171  0.55546253     0.37840
C2323       C  0.13886353  0.97736431  0.54217140     0.36270
C2324       C  0.18380926  0.12174989  0.58443969     0.36270
N2325       N  0.12683755  0.94730908  0.54360198    -0.38550
N2326       N  0.19465149  0.15230741  0.58547109    -0.38550
N2327       N  0.05644835  0.02603454  0.55084901    -0.38000
N2328       N  0.26436404  0.08751970  0.57577821    -0.38000
C2329       C  0.73307948  0.46118733  0.97735201    -0.04670
C2330       C  0.70925149  0.42942128  0.96995536    -0.01780
C2331       C  0.67205727  0.43104838  0.97962599     0.03210
C2332       C  0.65605659  0.46617506  0.98803536    -0.04660
C2333       C  0.67738422  0.49778548  0.98321263    -0.01770
C2334       C  0.71411450  0.49378971  0.99035336     0.03200
C2335       C  0.72194522  0.39381599  0.95613513     0.37850
C2336       C  0.66200961  0.53482115  0.98192402     0.37840
C2337       C  0.72233576  0.51330321  0.02475852     0.36270
C2338       C  0.65131954  0.39619969  0.98184695     0.36270
N2339       N  0.72260244  0.53140693  0.05165802    -0.38550
N2340       N  0.63507023  0.36831267  0.98350282    -0.38550
N2341       N  0.65001203  0.56437905  0.98093887    -0.38000
N2342       N  0.73047740  0.36511748  0.94435552    -0.38000
C2343       C  0.77797797  0.44198484  0.02474172    -0.04670
C2344       C  0.75118929  0.41581868  0.03689212    -0.01780
C2345       C  0.72623343  0.42597524  0.06516978     0.03210
C2346       C  0.73279324  0.45848079  0.08802715    -0.04660
C2347       C  0.76754860  0.47584108  0.08270920    -0.01770
C2348       C  0.79150410  0.46290194  0.05525390     0.03200
C2349       C  0.75510936  0.37682751  0.02744092     0.37850
C2350       C  0.78024345  0.50802741  0.10316507     0.37840
C2351       C  0.82646298  0.45180203  0.06969862     0.36270
C2352       C  0.69455516  0.40233905  0.07088248     0.36270
N2353       N  0.85376430  0.44212189  0.08231888    -0.38550
N2354       N  0.66902649  0.38372823  0.07533101    -0.38550
N2355       N  0.79268048  0.53504276  0.11611135    -0.38000
N2356       N  0.75812723  0.34532226  0.02097940    -0.38000
C2357       C  0.95150771  0.41934695  0.71837816    -0.04670
C2358       C  0.92775443  0.44787218  0.70693299    -0.01780
C2359       C  0.93695655  0.46975845  0.67609577     0.03210
C2360       C  0.96401774  0.45720616  0.65160693    -0.04660
C2361       C  0.97521035  0.41971680  0.65648279    -0.01770
C2362       C  0.96445123  0.39966109  0.68773337     0.03200
C2363       C  0.89184989  0.45044135  0.72160884     0.37850
C2364       C  0.00005321  0.40107362  0.63271224     0.37840
C2365       C  0.94628254  0.36448692  0.67851106     0.36270
C2366       C  0.91856157  0.50459022  0.67009479     0.36270
N2367       N  0.93125019  0.33692725  0.66982772    -0.38550
N2368       N  0.90393814  0.53244426  0.66545373    -0.38550
N2369       N  0.02210918  0.38387497  0.61853328    -0.38000
N2370       N  0.86223399  0.45394245  0.73084453    -0.38000
C2371       C  0.98552936  0.46997331  0.75231950    -0.04670
C2372       C  0.96906133  0.49917925  0.77200983    -0.01780
C2373       C  0.98756071  0.53378280  0.77810841     0.03210
C2374       C  0.01578907  0.54603884  0.75437654    -0.04660
C2375       C  0.02740354  0.52060756  0.72798726    -0.01770
C2376       C  0.01308699  0.48354543  0.72667226     0.03200
C2377       C  0.93083204  0.49777362  0.78087961     0.37850
C2378       C  0.05662742  0.53195344  0.70346898     0.37840
C2379       C  0.02917964  0.46205945  0.69753823     0.36270
C2380       C  0.97692601  0.55392605  0.81085313     0.36270
N2381       N  0.04591222  0.45106238  0.67297278    -0.38550
N2382       N  0.96517363  0.56436393  0.83850109    -0.38550
N2383       N  0.07967286  0.54078389  0.68395099    -0.38000
N2384       N  0.90070252  0.49884424  0.78926936    -0.38000
C2385       C  0.01459812  0.40840150  0.76025917    -0.04670
C2386       C  0.03876882  0.42812965  0.78544778    -0.01780
C2387       C  0.07108304  0.44498185  0.77248672     0.03210
C2388       C  0.08767052  0.42986872  0.74096338    -0.04660
C2389       C  0.07062338  0.39757349  0.72436358    -0.01770
C2390       C  0.03392541  0.38763277  0.73274741     0.03200
C2391       C  0.03346542  0.42711114  0.82480743     0.37850
C2392       C  0.08898560  0.37725705  0.69516929     0.37840
C2393       C  0.02082183  0.35260994  0.71681510     0.36270
C2394       C  0.08521497  0.47877650  0.79049857     0.36270
N2395       N  0.01469151  0.32418356  0.70202300    -0.38550
N2396       N  0.09563321  0.50635035  0.80453211    -0.38550
N2397       N  0.10351853  0.36114471  0.67190794    -0.38000
N2398       N  0.03181002  0.42520856  0.85670934    -0.38000
C2399       C  0.89110575  0.32798631  0.90369634    -0.04670
C2400       C  0.87804498  0.31638514  0.93948418    -0.01780
C2401       C  0.90083640  0.29861398  0.96739205     0.03210
C2402       C  0.93492955  0.28145630  0.95935740    -0.04660
C2403       C  0.94629854  0.29013462  0.92249435    -0.01770
C2404       C  0.92919779  0.31855812  0.90059695     0.03200
C2405       C  0.84049681  0.32245300  0.94896449     0.37850
C2406       C  0.97772186  0.27257613  0.90649828     0.37840
C2407       C  0.95514473  0.34267229  0.88266909     0.36270
C2408       C  0.89025528  0.30341776  0.00541181     0.36270
N2409       N  0.97749600  0.36123645  0.86983640    -0.38550
N2410       N  0.88139638  0.31061259  0.03521426    -0.38550
N2411       N  0.00253696  0.25889827  0.89302857    -0.38000
N2412       N  0.81052129  0.32672634  0.95668523    -0.38000
C2413       C  0.84306715  0.38463010  0.89893962    -0.04670
C2414       C  0.80621591  0.39686965  0.89160267    -0.01780
C2415       C  0.78651004  0.42165558  0.91633803     0.03210
C2416       C  0.79929565  0.43270130  0.95300467    -0.04660
C2417       C  0.83722885  0.42465526  0.95803984    -0.01770
C2418       C  0.85820081  0.40242895  0.93217125     0.03200
C2419       C  0.78731077  0.38812739  0.85701701     0.37850
C2420       C  0.85786358  0.44283810  0.98774059     0.37840
C2421       C  0.89713074  0.40041355  0.93932219     0.36270
C2422       C  0.75406558  0.43886264  0.90107214     0.36270
N2423       N  0.92806017  0.39965812  0.94552690    -0.38550
N2424       N  0.72860467  0.45232521  0.88804011    -0.38550
N2425       N  0.87840708  0.45627876  0.00887657    -0.38000
N2426       N  0.76923148  0.38429205  0.83053022    -0.38000
C2427       C  0.89552052  0.37437028  0.84507036    -0.04670
C2428       C  0.90697543  0.41315268  0.84477917    -0.01780
C2429       C  0.93684650  0.42687717  0.82268189     0.03210
C2430       C  0.94889100  0.40815879  0.78955072    -0.04660
C2431       C  0.93643992  0.36952527  0.78900304    -0.01770
C2432       C  0.91288744  0.35308291  0.81652122     0.03200
C2433       C  0.88845893  0.44134719  0.86569278     0.37850
C2434       C  0.94910760  0.34314285  0.76208046     0.37840
C2435       C  0.90762637  0.31262922  0.81579676     0.36270
C2436       C  0.95865389  0.45650882  0.84017249     0.36270
N2437       N  0.90396327  0.28047814  0.81495894    -0.38550
N2438       N  0.97488658  0.48003136  0.85592904    -0.38550
N2439       N  0.95562996  0.31716651  0.74423444    -0.38000
N2440       N  0.87483142  0.46559178  0.88131695    -0.38000
C2441       C  0.83759698  0.32750063  0.84667255    -0.04670
C2442       C  0.82148547  0.29197865  0.85605356    -0.01780
C2443       C  0.79182070  0.27385912  0.83464415     0.03210
C2444       C  0.78285417  0.28245366  0.79631000    -0.04660
C2445       C  0.80649759  0.31189663  0.78363576    -0.01770
C2446       C  0.82775500  0.33645620  0.80861262     0.03200
C2447       C  0.83808145  0.26898947  0.88394940     0.37850
C2448       C  0.81394718  0.31564480  0.74465281     0.37840
C2449       C  0.83742308  0.37251012  0.79390006     0.36270
C2450       C  0.77279438  0.24444275  0.85383620     0.36270
N2451       N  0.84402859  0.40165518  0.78237174    -0.38550
N2452       N  0.76018975  0.22128898  0.87179696    -0.38550
N2453       N  0.82168221  0.31924646  0.71395921    -0.38000
N2454       N  0.85003091  0.24791423  0.90463123    -0.38000
C2455       C  0.75749420  0.57302832  0.98230864    -0.04670
C2456       C  0.78260194  0.56191917  0.01028384    -0.01780
C2457       C  0.80031084  0.52697089  0.00738745     0.03210
C2458       C  0.79070357  0.50106875  0.97809800    -0.04660
C2459       C  0.77894422  0.51945403  0.94563180    -0.01770
C2460       C  0.75802341  0.55206286  0.94835423     0.03200
C2461       C  0.78721772  0.58369368  0.04421394     0.37850
C2462       C  0.79383482  0.50977813  0.91016445     0.37840
C2463       C  0.73604596  0.56184941  0.91633517     0.36270
C2464       C  0.83462218  0.52439629  0.02719057     0.36270
N2465       N  0.71832484  0.56890593  0.89064592    -0.38550
N2466       N  0.86193546  0.52502475  0.04366951    -0.38550
N2467       N  0.80559936  0.50363378  0.88126417    -0.38000
N2468       N  0.78961973  0.60056039  0.07176761    -0.38000
C2469       C  0.59851931  0.72934407  0.97627017    -0.04670
C2470       C  0.58099363  0.75619256  0.95363628    -0.01780
C2471       C  0.54226974  0.75645739  0.95026106     0.03210
C2472       C  0.52101216  0.73627036  0.97597137    -0.04660
C2473       C  0.54180752  0.70967099  0.99775987    -0.01770
C2474       C  0.57714394  0.70090471  0.98924176     0.03200
C2475       C  0.60185734  0.78211974  0.93191779     0.37850
C2476       C  0.53208747  0.69280749  0.03210790     0.37840
C2477       C  0.59230494  0.66505320  0.99929912     0.36270
C2478       C  0.52627675  0.77754218  0.92071013     0.36270
N2479       N  0.60409931  0.63652057  0.00719394    -0.38550
N2480       N  0.51565795  0.79482689  0.89616373    -0.38550
N2481       N  0.53106160  0.67666995  0.05956262    -0.38000
N2482       N  0.61676123  0.80321785  0.91338308    -0.38000
C2483       C  0.93185976  0.72686762  0.00515915    -0.04670
C2484       C  0.94356471  0.74483798  0.03870161    -0.01780
C2485       C  0.97702207  0.73475120  0.05665323     0.03210
C2486       C  0.99943876  0.70706160  0.04012740    -0.04660
C2487       C  0.97906605  0.68052626  0.01754465    -0.01770
C2488       C  0.94937219  0.69300062  0.99593067     0.03200
C2489       C  0.92250573  0.77517355  0.05359602     0.37850
C2490       C  0.99335326  0.64382721  0.00990048     0.37840
C2491       C  0.93759354  0.67126722  0.96329109     0.36270
C2492       C  0.98304222  0.74748019  0.09443185     0.36270
N2493       N  0.92835529  0.65408680  0.93719949    -0.38550
N2494       N  0.98511390  0.75763841  0.12504438    -0.38550
N2495       N  0.00417633  0.61429490  0.00389888    -0.38000
N2496       N  0.90561610  0.79939270  0.06528415    -0.38000
C2497       C  0.74692741  0.74034343  0.15804707    -0.04670
C2498       C  0.72170479  0.72200055  0.17900207    -0.01780
C2499       C  0.72830048  0.71809813  0.21693751     0.03210
C2500       C  0.75791463  0.73845701  0.23719482    -0.04660
C2501       C  0.78449770  0.75510283  0.21487128    -0.01770
C2502       C  0.77965605  0.75481830  0.17561570     0.03200
C2503       C  0.68781710  0.70753718  0.16152647     0.37850
C2504       C  0.81899448  0.76760070  0.23100451     0.37840
C2505       C  0.80992949  0.76713645  0.15358511     0.36270
C2506       C  0.70175539  0.69321127  0.23297298     0.36270
N2507       N  0.83499624  0.77676729  0.13722193    -0.38550
N2508       N  0.67848599  0.67219141  0.23935842    -0.38550
N2509       N  0.84764349  0.77601451  0.24240788    -0.38000
N2510       N  0.66094141  0.69610593  0.14807067    -0.38000
C2511       C  0.51972779  0.24072452  0.03393548    -0.04670
C2512       C  0.53576111  0.26502804  0.00721402    -0.01780
C2513       C  0.51879612  0.29892684  0.99749606     0.03210
C2514       C  0.48952497  0.31196720  0.01858817    -0.04660
C2515       C  0.48370851  0.29372106  0.05311956    -0.01770
C2516       C  0.50279898  0.26086496  0.06193770     0.03200
C2517       C  0.57046903  0.25788416  0.99123231     0.37850
C2518       C  0.45600562  0.30571016  0.07833114     0.37840
C2519       C  0.50915142  0.25024004  0.09994642     0.36270
C2520       C  0.52954530  0.31784337  0.96405383     0.36270
N2521       N  0.51483353  0.24221241  0.13041915    -0.38550
N2522       N  0.53824117  0.33269986  0.93732784    -0.38550
N2523       N  0.43354954  0.31455885  0.09845281    -0.38000
N2524       N  0.59878817  0.25693504  0.97802314    -0.38000
C2525       C  0.46505799  0.18814365  0.03289754    -0.04670
C2526       C  0.43905522  0.21430248  0.04542680    -0.01780
C2527       C  0.40797689  0.22202534  0.02315901     0.03210
C2528       C  0.40004946  0.20047941  0.99045878    -0.04660
C2529       C  0.41858640  0.16601946  0.98743474    -0.01770
C2530       C  0.44803713  0.15853391  0.01209185     0.03200
C2531       C  0.43500559  0.22120203  0.08467470     0.37850
C2532       C  0.40901399  0.13877462  0.95857963     0.37840
C2533       C  0.45903277  0.12070034  0.01797881     0.36270
C2534       C  0.38841555  0.25569434  0.03123700     0.36270
N2535       N  0.46622205  0.08996139  0.02326201    -0.38550
N2536       N  0.37508136  0.28420205  0.03615795    -0.38550
N2537       N  0.40156618  0.11699761  0.93546529    -0.38000
N2538       N  0.43018010  0.22679650  0.11586686    -0.38000
C2539       C  0.53548530  0.17055278  0.04697284    -0.04670
C2540       C  0.52963277  0.15777286  0.08418314    -0.01780
C2541       C  0.55759167  0.14043642  0.10637964     0.03210
C2542       C  0.58847337  0.12247994  0.09035693    -0.04660
C2543       C  0.59131085  0.13048408  0.05163420    -0.01770
C2544       C  0.57044525  0.15923871  0.03389487     0.03200
C2545       C  0.49415115  0.15787239  0.10035050     0.37850
C2546       C  0.61462369  0.10980873  0.02762977     0.37840
C2547       C  0.58637481  0.17443473  0.00093428     0.36270
C2548       C  0.55396271  0.14175901  0.14642977     0.36270
N2549       N  0.60111594  0.18204748  0.97399847    -0.38550
N2550       N  0.55099119  0.14312093  0.17829345    -0.38550
N2551       N  0.63256325  0.09544421  0.00598839    -0.38000
N2552       N  0.46658540  0.15455457  0.11483937    -0.38000
C2553       C  0.47797139  0.49571591  0.71184237    -0.04670
C2554       C  0.45439575  0.47921553  0.68479680    -0.01780
C2555       C  0.42173304  0.46024429  0.69511276     0.03210
C2556       C  0.40893253  0.46195787  0.73244946    -0.04660
C2557       C  0.42655345  0.48866256  0.75603591    -0.01770
C2558       C  0.45808680  0.50867975  0.74406726     0.03200
C2559       C  0.45525938  0.49454235  0.64811498     0.37850
C2560       C  0.41426299  0.49371796  0.79370837     0.37840
C2561       C  0.47329848  0.53685936  0.76958898     0.36270
C2562       C  0.40388953  0.43600651  0.66754135     0.36270
N2563       N  0.48426278  0.55908614  0.79088769    -0.38550
N2564       N  0.39027415  0.41611554  0.64556888    -0.38550
N2565       N  0.40491884  0.49760857  0.82393075    -0.38000
N2566       N  0.45433112  0.50715108  0.61881148    -0.38000
C2567       C  0.51897039  0.47265447  0.75936678    -0.04670
C2568       C  0.53862837  0.49007279  0.78887635    -0.01780
C2569       C  0.53535912  0.47675077  0.82586501     0.03210
C2570       C  0.50997407  0.44743254  0.83532418    -0.04660
C2571       C  0.48992565  0.43037558  0.80677912    -0.01770
C2572       C  0.49505222  0.44117012  0.76984130     0.03200
C2573       C  0.56179063  0.52223246  0.78166561     0.37850
C2574       C  0.46489944  0.39971556  0.81532581     0.37840
C2575       C  0.47430734  0.41804945  0.74345490     0.36270
C2576       C  0.55988459  0.49358449  0.85313689     0.36270
N2577       N  0.45658788  0.39749357  0.72541058    -0.38550
N2578       N  0.58192677  0.50850496  0.87148011    -0.38550
N2579       N  0.44503588  0.37542621  0.82198087    -0.38000
N2580       N  0.58042851  0.54800090  0.77681365    -0.38000
C2581       C  0.60118600  0.56540848  0.65157116    -0.04670
C2582       C  0.60612857  0.52670103  0.65485706    -0.01780
C2583       C  0.57919316  0.50226561  0.66952698     0.03210
C2584       C  0.55016548  0.51426913  0.69490950    -0.04660
C2585       C  0.54898060  0.55474517  0.69617332    -0.01770
C2586       C  0.57471058  0.57914930  0.67698726     0.03200
C2587       C  0.64216297  0.51158602  0.64992676     0.37850
C2588       C  0.51718458  0.57303896  0.70942123     0.37840
C2589       C  0.57176871  0.61932313  0.68117188     0.36270
C2590       C  0.58334083  0.46540204  0.65276308     0.36270
N2591       N  0.56941021  0.65135491  0.68441577    -0.38550
N2592       N  0.58948687  0.43705468  0.63855107    -0.38550
N2593       N  0.49230315  0.59076601  0.71660847    -0.38000
N2594       N  0.67099428  0.49977159  0.64744655    -0.38000
C2595       C  0.45499251  0.24995358  0.59199226    -0.04670
C2596       C  0.42966277  0.27435305  0.57530176    -0.01780
C2597       C  0.42710998  0.27694769  0.53579563     0.03210
C2598       C  0.44344767  0.24957272  0.51293170    -0.04660
C2599       C  0.46527589  0.22232599  0.53244052    -0.01770
C2600       C  0.47499654  0.22678284  0.56949946     0.03200
C2601       C  0.40535537  0.29625553  0.59715915     0.37850
C2602       C  0.48168308  0.18990894  0.51588367     0.37840
C2603       C  0.50470194  0.20466458  0.58517893     0.36270
C2604       C  0.40852179  0.30817392  0.51995677     0.36270
N2605       N  0.52802763  0.18687772  0.59681492    -0.38550
N2606       N  0.39435973  0.33434547  0.50881392    -0.38550
N2607       N  0.49822570  0.16378457  0.50871252    -0.38000
N2608       N  0.38428706  0.31446826  0.61191094    -0.38000
C2609       C  0.63731397  0.28924861  0.75615945    -0.04670
C2610       C  0.65622793  0.26871311  0.73041103    -0.01780
C2611       C  0.68638095  0.25019988  0.74321710     0.03210
C2612       C  0.71112571  0.26811949  0.77013753    -0.04660
C2613       C  0.69478577  0.29522351  0.79339230    -0.01770
C2614       C  0.65679500  0.30226159  0.78873843     0.03200
C2615       C  0.64090324  0.25899476  0.69387402     0.37850
C2616       C  0.71351427  0.30987031  0.82620955     0.37840
C2617       C  0.63790534  0.31963432  0.81902574     0.36270
C2618       C  0.68846117  0.21259847  0.72822239     0.36270
N2619       N  0.62408428  0.33246047  0.84462217    -0.38550
N2620       N  0.68492424  0.18338306  0.71426431    -0.38550
N2621       N  0.72654615  0.32123907  0.85369438    -0.38000
N2622       N  0.62895829  0.25138948  0.66479324    -0.38000
C2623       C  0.53539288  0.37110807  0.71617646    -0.04670
C2624       C  0.52290909  0.38290099  0.68089859    -0.01780
C2625       C  0.51855390  0.42137589  0.67559650     0.03210
C2626       C  0.53456612  0.44592827  0.70277377    -0.04660
C2627       C  0.56504630  0.43055099  0.72284544    -0.01770
C2628       C  0.56040151  0.39438972  0.73560220     0.03200
C2629       C  0.51563550  0.35625244  0.65088225     0.37850
C2630       C  0.59513085  0.45341173  0.73771523     0.37840
C2631       C  0.57354055  0.38620072  0.77249732     0.36270
C2632       C  0.50743422  0.43391478  0.63934721     0.36270
N2633       N  0.58261602  0.38175348  0.80289854    -0.38550
N2634       N  0.50052614  0.44175482  0.60906483    -0.38550
N2635       N  0.61982108  0.47068070  0.74937032    -0.38000
N2636       N  0.51071634  0.33581354  0.62602496    -0.38000
C2637       C  0.50859770  0.20199887  0.90177991    -0.04670
C2638       C  0.52372165  0.17110300  0.91914816    -0.01780
C2639       C  0.51952309  0.16633327  0.95769771     0.03210
C2640       C  0.50574352  0.19595973  0.98021795    -0.04660
C2641       C  0.48655977  0.22418086  0.95957298    -0.01770
C2642       C  0.49114239  0.22892906  0.92194510     0.03200
C2643       C  0.54669788  0.14623757  0.89863497     0.37850
C2644       C  0.46037385  0.24971099  0.97347580     0.37840
C2645       C  0.47577784  0.26145992  0.90307251     0.36270
C2646       C  0.52622931  0.12940818  0.97169477     0.36270
N2647       N  0.46295086  0.28688942  0.88889572    -0.38550
N2648       N  0.53255915  0.09949683  0.98116123    -0.38550
N2649       N  0.43879412  0.27260581  0.97598990    -0.38000
N2650       N  0.56674441  0.12668880  0.88404218    -0.38000
C2651       C  0.45106777  0.05122107  0.75182259    -0.04670
C2652       C  0.46974999  0.03524715  0.78248488    -0.01780
C2653       C  0.45653097  0.00157072  0.79630805     0.03210
C2654       C  0.43690660  0.97754685  0.77070750    -0.04660
C2655       C  0.41076568  0.99606381  0.74899486    -0.01770
C2656       C  0.41726401  0.03409376  0.74085050     0.03200
C2657       C  0.50652614  0.04592627  0.79389773     0.37850
C2658       C  0.37422496  0.98077111  0.74511339     0.37840
C2659       C  0.38974646  0.05436564  0.72135465     0.36270
C2660       C  0.47082928  0.98807831  0.83138157     0.36270
N2661       N  0.36667489  0.07001723  0.70666187    -0.38550
N2662       N  0.48190687  0.97794785  0.85964188    -0.38550
N2663       N  0.34433644  0.97017209  0.74320307    -0.38000
N2664       N  0.53673660  0.05119796  0.80219442    -0.38000
C2665       C  0.20928178  0.17934917  0.75970554    -0.04670
C2666       C  0.23662770  0.16075440  0.78127562    -0.01780
C2667       C  0.24904595  0.17763328  0.81483932     0.03210
C2668       C  0.22944721  0.20749911  0.82976648    -0.04660
C2669       C  0.19395751  0.21377033  0.81465638    -0.01770
C2670       C  0.18285809  0.19583872  0.78115794     0.03200
C2671       C  0.25489475  0.12776416  0.76787100     0.37850
C2672       C  0.17064176  0.24219499  0.82923504     0.37840
C2673       C  0.14521019  0.19413390  0.76900081     0.36270
C2674       C  0.28456028  0.16842901  0.82990536     0.36270
N2675       N  0.11488103  0.19290710  0.76002129    -0.38550
N2676       N  0.31316560  0.16121889  0.84117062    -0.38550
N2677       N  0.15135988  0.26575877  0.83777685    -0.38000
N2678       N  0.26952159  0.10123772  0.75795304    -0.38000
C2679       C  0.18262480  0.16725023  0.69192986    -0.04670
C2680       C  0.17384950  0.12858108  0.69710422    -0.01780
C2681       C  0.15475281  0.10591484  0.66963476     0.03210
C2682       C  0.13301128  0.12099634  0.64014905    -0.04660
C2683       C  0.13630847  0.16116421  0.63856390    -0.01770
C2684       C  0.15972083  0.18337353  0.66367771     0.03200
C2685       C  0.17989622  0.11097371  0.73250555     0.37850
C2686       C  0.12150383  0.18089909  0.60728940     0.37840
C2687       C  0.15713044  0.22351668  0.66034866     0.36270
C2688       C  0.16057386  0.06635341  0.67291921     0.36270
N2689       N  0.15375485  0.25524474  0.65626755    -0.38550
N2690       N  0.16919451  0.03635972  0.67974933    -0.38550
N2691       N  0.11212483  0.19866182  0.58257073    -0.38000
N2692       N  0.18177450  0.09528527  0.76024167    -0.38000
C2693       C  0.21402093  0.23450342  0.71089239    -0.04670
C2694       C  0.23739682  0.25042185  0.68392255    -0.01780
C2695       C  0.26127481  0.28102586  0.69392320     0.03210
C2696       C  0.25916843  0.29921671  0.72931066    -0.04660
C2697       C  0.22842677  0.28921671  0.75083140    -0.01770
C2698       C  0.20385941  0.26063436  0.73840316     0.03200
C2699       C  0.24118823  0.23151451  0.64837769     0.37850
C2700       C  0.22533060  0.30172767  0.78895587     0.37840
C2701       C  0.16574909  0.26798387  0.74232336     0.36270
C2702       C  0.29100136  0.28940646  0.66969733     0.36270
N2703       N  0.13527323  0.27469692  0.74470947    -0.38550
N2704       N  0.31452737  0.29500483  0.64969374    -0.38550
N2705       N  0.22455298  0.31060242  0.81989631    -0.38000
N2706       N  0.24442905  0.21661576  0.61997783    -0.38000
C2707       C  0.25552059  0.18144088  0.71108018    -0.04670
C2708       C  0.27011640  0.15339770  0.68719752    -0.01780
C2709       C  0.30820074  0.14678999  0.68779217     0.03210
C2710       C  0.33145725  0.16853667  0.71142741    -0.04660
C2711       C  0.31876813  0.20178740  0.72500867    -0.01770
C2712       C  0.28246024  0.20437083  0.73145460     0.03200
C2713       C  0.24773510  0.12794901  0.66528503     0.37850
C2714       C  0.34310342  0.23301500  0.73585157     0.37840
C2715       C  0.27696245  0.22853097  0.76320506     0.36270
C2716       C  0.32329063  0.12028604  0.66187855     0.36270
N2717       N  0.28080431  0.24767024  0.78923639    -0.38550
N2718       N  0.33472834  0.09976729  0.64014873    -0.38550
N2719       N  0.36011917  0.25868339  0.74617671    -0.38000
N2720       N  0.23249629  0.10507134  0.64787339    -0.38000
C2721       C  0.01210156  0.98810386  0.75753372    -0.04670
C2722       C  0.98679864  0.96377983  0.77730320    -0.01780
C2723       C  0.99064676  0.95706600  0.81482898     0.03210
C2724       C  0.01474263  0.97855286  0.83625241    -0.04660
C2725       C  0.04036498  0.00227551  0.81917648    -0.01770
C2726       C  0.03999797  0.00612658  0.77980513     0.03200
C2727       C  0.95582365  0.94339250  0.76091347     0.37850
C2728       C  0.06760041  0.02213007  0.84167126     0.37840
C2729       C  0.06918615  0.02729800  0.76340717     0.36270
C2730       C  0.96946318  0.92687958  0.83194043     0.36270
N2731       N  0.09349490  0.04392260  0.75163567    -0.38550
N2732       N  0.95297591  0.90304768  0.84539851    -0.38550
N2733       N  0.08997298  0.03838119  0.85856490    -0.38000
N2734       N  0.93043983  0.92501484  0.75334195    -0.38000
C2735       C  0.96712646  0.00573068  0.70897614    -0.04670
C2736       C  0.94678100  0.02109147  0.73934920    -0.01780
C2737       C  0.91123562  0.00705888  0.74567011     0.03210
C2738       C  0.89409708  0.98223234  0.71930990    -0.04660
C2739       C  0.91036459  0.97963335  0.68371555    -0.01770
C2740       C  0.94518390  0.99592772  0.67820537     0.03200
C2741       C  0.96323498  0.04537751  0.76813577     0.37850
C2742       C  0.89404566  0.95736202  0.65374362     0.37840
C2743       C  0.95642649  0.00773611  0.64203331     0.36270
C2744       C  0.89623734  0.01329706  0.78210045     0.36270
N2745       N  0.96538794  0.01801600  0.61333532    -0.38550
N2746       N  0.88627524  0.01842865  0.81193458    -0.38550
N2747       N  0.88167632  0.93930356  0.62956620    -0.38000
N2748       N  0.97540791  0.06433980  0.79176534    -0.38000
C2749       C  0.01049387  0.94578950  0.70372103    -0.04670
C2750       C  0.98487316  0.92526263  0.68141146    -0.01780
C2751       C  0.97001258  0.89104483  0.69391448     0.03210
C2752       C  0.98319808  0.87466850  0.72742007    -0.04660
C2753       C  0.01560282  0.89033986  0.74318962    -0.01770
C2754       C  0.03197638  0.92235499  0.72715728     0.03200
C2755       C  0.98332331  0.93163980  0.64196928     0.37850
C2756       C  0.02944564  0.87775166  0.77847321     0.37840
C2757       C  0.06825133  0.93428191  0.73921649     0.36270
C2758       C  0.93910432  0.87476573  0.67337624     0.36270
N2759       N  0.09738495  0.94328650  0.74868802    -0.38550
N2760       N  0.91440247  0.86185510  0.65706745    -0.38550
N2761       N  0.03999434  0.87030001  0.80777152    -0.38000
N2762       N  0.98262958  0.93498615  0.61011419    -0.38000
C2763       C  0.03583040  0.01540888  0.68820124    -0.04670
C2764       C  0.06157335  0.00076092  0.66204490    -0.01780
C2765       C  0.08639815  0.02412309  0.64107908     0.03210
C2766       C  0.08493473  0.06458187  0.63997895    -0.04660
C2767       C  0.06449275  0.07768319  0.67097083    -0.01770
C2768       C  0.03732302  0.05554610  0.68944207     0.03200
C2769       C  0.06474959  0.96092038  0.65528624     0.37850
C2770       C  0.07559464  0.11196781  0.69039707     0.37840
C2771       C  0.01016168  0.07700614  0.70790532     0.36270
C2772       C  0.11842354  0.00481005  0.62917503     0.36270
N2773       N  0.98964763  0.09797584  0.71957319    -0.38550
N2774       N  0.14366871  0.98731563  0.62266208    -0.38550
N2775       N  0.08348433  0.13903995  0.70680399    -0.38000
N2776       N  0.06899294  0.92961503  0.64855140    -0.38000
C2777       C  0.73143834  0.73630789  0.73280428    -0.04670
C2778       C  0.75957829  0.75625956  0.75509266    -0.01780
C2779       C  0.75778307  0.79414646  0.76375231     0.03210
C2780       C  0.73525314  0.81602334  0.74286694    -0.04660
C2781       C  0.70696531  0.79775203  0.72040553    -0.01770
C2782       C  0.70294471  0.75839576  0.71928296     0.03200
C2783       C  0.79227666  0.74031687  0.77011895     0.37850
C2784       C  0.68203403  0.81808458  0.69681772     0.37840
C2785       C  0.66866306  0.74218477  0.70592347     0.36270
C2786       C  0.77961800  0.81018971  0.79455976     0.36270
N2787       N  0.64044434  0.73071144  0.69596417    -0.38550
N2788       N  0.79684756  0.82147099  0.81963366    -0.38550
N2789       N  0.66209466  0.83326796  0.67730505    -0.38000
N2790       N  0.81944821  0.73347990  0.78484325    -0.38000
C2791       C  0.77119027  0.68885830  0.70498619    -0.04670
C2792       C  0.79176897  0.72024367  0.69070807    -0.01780
C2793       C  0.82876355  0.72457161  0.70111476     0.03210
C2794       C  0.84513765  0.69650203  0.72199491    -0.04660
C2795       C  0.82793589  0.66053276  0.72141095    -0.01770
C2796       C  0.79162154  0.65664026  0.70852706     0.03200
C2797       C  0.77556782  0.75170181  0.67215363     0.37850
C2798       C  0.84542776  0.62832977  0.73674320     0.37840
C2799       C  0.77563774  0.62048151  0.69896578     0.36270
C2800       C  0.84762403  0.76001006  0.69547321     0.36270
N2801       N  0.76350752  0.59121707  0.69143195    -0.38550
N2802       N  0.86182994  0.78865302  0.69110942    -0.38550
N2803       N  0.85847834  0.60214172  0.74916424    -0.38000
N2804       N  0.76443735  0.77795238  0.65790517    -0.38000
C2805       C  0.73637641  0.67969281  0.76960826    -0.04670
C2806       C  0.76463031  0.65829237  0.78532226    -0.01780
C2807       C  0.78376003  0.67099659  0.81802231     0.03210
C2808       C  0.77291780  0.70381293  0.83772602    -0.04660
C2809       C  0.73846902  0.71761607  0.82735911    -0.01770
C2810       C  0.71808420  0.70102914  0.79716926     0.03200
C2811       C  0.76405626  0.61848596  0.77822706     0.37850
C2812       C  0.72691114  0.75299826  0.84140587     0.37840
C2813       C  0.68061791  0.71132977  0.79096952     0.36270
C2814       C  0.81599989  0.65123195  0.82935833     0.36270
N2815       N  0.65054583  0.71931639  0.78682789    -0.38550
N2816       N  0.84170514  0.63535642  0.83823403    -0.38550
N2817       N  0.71730653  0.78252624  0.84889945    -0.38000
N2818       N  0.76336779  0.58634831  0.77437333    -0.38000
C2819       C  0.70236409  0.66885281  0.70186234    -0.04670
C2820       C  0.69350692  0.67578840  0.66366377    -0.01780
C2821       C  0.66325923  0.65759957  0.64383561     0.03210
C2822       C  0.65013422  0.62034357  0.65201719    -0.04660
C2823       C  0.66277819  0.61078635  0.68937036    -0.01770
C2824       C  0.68236419  0.63676370  0.71450696     0.03200
C2825       C  0.71511015  0.70059084  0.64151036     0.37850
C2826       C  0.65686453  0.57439331  0.70514958     0.37840
C2827       C  0.68009636  0.62904821  0.75374585     0.36270
C2828       C  0.64577483  0.68162131  0.61774631     0.36270
N2829       N  0.67681484  0.62164489  0.78462719    -0.38550
N2830       N  0.63569905  0.70408836  0.59755892    -0.38550
N2831       N  0.65357703  0.54702315  0.72143777    -0.38000
N2832       N  0.72957829  0.71760440  0.61899474    -0.38000
C2833       C  0.77478288  0.02643052  0.03675883    -0.04670
C2834       C  0.79000100  0.05121189  0.00943639    -0.01780
C2835       C  0.82734748  0.05010943  0.00250816     0.03210
C2836       C  0.84916099  0.02771868  0.02497393    -0.04660
C2837       C  0.83543370  0.01705653  0.06014524    -0.01770
C2838       C  0.79823398  0.01969139  0.06664708     0.03200
C2839       C  0.76745892  0.07470191  0.98631424     0.37850
C2840       C  0.85725036  0.99911009  0.08824662     0.37840
C2841       C  0.78630158  0.02522297  0.10412488     0.36270
C2842       C  0.84229196  0.06917431  0.97092200     0.36270
N2843       N  0.77872585  0.03061263  0.13465846    -0.38550
N2844       N  0.85410151  0.08437690  0.94568474    -0.38550
N2845       N  0.87383522  0.98375407  0.11063386    -0.38000
N2846       N  0.75000081  0.09403404  0.96814746    -0.38000
C2847       C  0.74023261  0.99954788  0.98538104    -0.04670
C2848       C  0.77141794  0.98117727  0.96880831    -0.01780
C2849       C  0.77414973  0.97539915  0.93051983     0.03210
C2850       C  0.75160859  0.99447319  0.90662717    -0.04660
C2851       C  0.72285474  0.01570930  0.92204285    -0.01770
C2852       C  0.71438246  0.01323392  0.96007416     0.03200
C2853       C  0.80206915  0.96691911  0.98970005     0.37850
C2854       C  0.70440086  0.04386884  0.90094767     0.37840
C2855       C  0.67831929  0.02201302  0.97170743     0.36270
C2856       C  0.80284651  0.95228424  0.91581597     0.36270
N2857       N  0.64845557  0.02626210  0.97970371    -0.38550
N2858       N  0.82545681  0.93355696  0.90456998    -0.38550
N2859       N  0.69014432  0.06773450  0.88553937    -0.38000
N2860       N  0.82781762  0.95366245  0.00227546    -0.38000
C2861       C  0.73965467  0.95819690  0.03859146    -0.04670
C2862       C  0.72628710  0.93082367  0.01134140    -0.01780
C2863       C  0.74957719  0.90260754  0.99727676     0.03210
C2864       C  0.78063871  0.89135985  0.01781175    -0.04660
C2865       C  0.78610210  0.91027290  0.05298085    -0.01770
C2866       C  0.76502483  0.94206155  0.06352491     0.03200
C2867       C  0.69107376  0.93494256  0.99332335     0.37850
C2868       C  0.81579842  0.90002517  0.07738691     0.37840
C2869       C  0.75977384  0.94839681  0.10261918     0.36270
C2870       C  0.74495140  0.89135935  0.95879332     0.36270
N2871       N  0.75491873  0.95169563  0.13408207    -0.38550
N2872       N  0.74188780  0.88443662  0.92745157    -0.38550
N2873       N  0.83951772  0.89234761  0.09716786    -0.38000
N2874       N  0.66281410  0.93699431  0.97896535    -0.38000
C2875       C  0.64555327  0.07264923  0.09040425    -0.04670
C2876       C  0.64384391  0.03264554  0.08346462    -0.01780
C2877       C  0.67273778  0.01134225  0.06602527     0.03210
C2878       C  0.70515177  0.02781783  0.05069190    -0.04660
C2879       C  0.70702590  0.06799789  0.05962322    -0.01770
C2880       C  0.67746856  0.08922332  0.07494394     0.03200
C2881       C  0.61120010  0.01143059  0.09143126     0.37850
C2882       C  0.74088665  0.08934629  0.06106216     0.37840
C2883       C  0.68099219  0.12977346  0.07430241     0.36270
C2884       C  0.66929054  0.97114455  0.06816517     0.36270
N2885       N  0.68514917  0.16176699  0.07238974    -0.38550
N2886       N  0.66517824  0.93933482  0.07196596    -0.38550
N2887       N  0.76671552  0.10822526  0.06431574    -0.38000
N2888       N  0.58628011  0.99210248  0.09639197    -0.38000
loop_ 
_geom_bond_atom_site_label_1 
_geom_bond_atom_site_label_2 
_geom_bond_distance 
_geom_bond_site_symmetry_2 
_ccdc_geom_bond_type 
C1         C2833   1.584       .  S
C1         C2847   1.604   1_544  S
C1         C2861   1.655   1_545  S
C1         C2878   1.699       .  S
C2         C2777   1.592       .  S
C2         C2791   1.595       .  S
C2         C2805   1.627       .  S
C2         C2819   1.661       .  S
C3         C2721   1.601       .  S
C3         C2735   1.609   1_465  S
C3         C2749   1.620       .  S
C3         C2763   1.667   1_565  S
C4         C2665   1.590       .  S
C4         C2679   1.649       .  S
C4         C2693   1.620       .  S
C4         C2707   1.593       .  S
Zr5           O6   2.433       .  S
Zr5           O7   2.485       .  S
Zr5           O8   2.346       .  S
Zr5          O11   2.417       .  S
Zr5          O13   2.335       .  S
Zr5          O14   2.419       .  S
Zr5          O15   2.451       .  S
Zr5          O16   2.368       .  S
O6           H62   0.990       .  S
O6           H70   0.990       .  S
O7           C27   1.291       .  A
O8           C29   1.269       .  A
O9          Zr19   2.484       .  S
O9           C28   1.298       .  A
O10         Zr18   2.519       .  S
O10          C29   1.303       .  A
O11          C28   1.284       .  A
O12         Zr20   2.421       .  S
O12          C27   1.282       .  A
O13         Zr18   2.291       .  S
O13         Zr20   2.341       .  S
O14         Zr19   2.415       .  S
O14         Zr20   2.372       .  S
O14          H49   0.965       .  S
O15         Zr18   2.368       .  S
O15         Zr35   2.423       .  S
O15          H52   0.965       .  S
O16         Zr19   2.361       .  S
O16         Zr35   2.354       .  S
Zr17         O42   2.439       .  S
Zr17         O36   2.452       .  S
Zr17         O44   2.327       .  S
Zr17         O32   2.424       .  S
Zr17         O23   2.438       .  S
Zr17         O24   2.308       .  S
Zr17         O25   2.390       .  S
Zr17         O26   2.384       .  S
Zr18         O37   2.440       .  S
Zr18         O30   2.430       .  S
Zr18         O31   2.455       .  S
Zr18         O24   2.319       .  S
Zr18         O25   2.408       .  S
Zr19         O21   2.437       .  S
Zr19         O43   2.442       .  S
Zr19         O45   2.516       .  S
Zr19         O23   2.393       .  S
Zr19         O26   2.337       .  S
Zr20         O46   2.442       .  S
Zr20         O47   2.438       .  S
Zr20         O22   2.423       .  S
Zr20         O23   2.391       .  S
Zr20         O24   2.386       .  S
O21          H58   0.990       .  S
O22          H53   0.989       .  S
O22          H67   0.986       .  S
O24          H50   0.947       .  S
O25         Zr35   2.405       .  S
O26         Zr35   2.390       .  S
O26          H51   0.962       .  S
C27        C2623   1.469       .  S
C28        C2637   1.442       .  S
C29        C2609   1.488       .  S
O30          H66   0.990       .  S
O31          C33   1.288       .  A
O32          C33   1.284       .  A
C33        C2595   1.476       .  S
O34         Zr35   2.436       .  S
O34          H63   0.990       .  S
Zr35         O38   2.438       .  S
Zr35         O39   2.436       .  S
Zr35         O40   2.422       .  S
O36          C41   1.287       .  A
O37          H54   0.989       .  S
O37          H69   0.990       .  S
O38          H55   0.990       .  S
O39          H59   0.982       .  S
O39          H68   0.989       .  S
O40          C41   1.279       .  A
C41        C2651   1.500       .  S
O42          H61   0.989       .  S
O42          H65   0.989       .  S
O43          H57   0.990       .  S
O43          H64   0.989       .  S
O44          C48   1.264       .  A
O45          C48   1.308       .  A
O46          H56   0.990       .  S
O47          H60   0.989       .  S
C48        C2710   1.464       .  S
C71        C2553   1.635       .  S
C71        C2567   1.633       .  S
C71        C2584   1.702       .  S
C71        C2626   1.561       .  S
C72        C2511   1.614       .  S
C72        C2525   1.622       .  S
C72        C2539   1.659       .  S
C72        C2640   1.601   1_554  S
Zr73         O74   2.435       .  S
Zr73         O75   2.588       .  S
Zr73         O76   2.588       .  S
Zr73         O79   2.597       .  S
Zr73         O81   2.410   1_556  S
Zr73         O82   2.406       .  S
Zr73         O83   2.439       .  S
Zr73         O84   2.432       .  S
O74         H130   0.990       .  S
O74         H138   0.990       .  S
O75          C95   1.311       .  A
O76          C97   1.308   1_556  A
O77         Zr87   2.357       .  S
O77          C96   1.251       .  A
O78         Zr86   2.380       .  S
O78          C97   1.262       .  A
O79          C96   1.311       .  A
O80         Zr88   2.303   1_556  S
O80          C95   1.250       .  A
O81         Zr86   2.408       .  S
O81         Zr88   2.404       .  S
O82         Zr87   2.389       .  S
O82         Zr88   2.373   1_556  S
O82         H117   0.964       .  S
O83         Zr86   2.372   1_556  S
O83        Zr103   2.345       .  S
O83         H120   0.957       .  S
O84         Zr87   2.411       .  S
O84        Zr103   2.371       .  S
Zr85        O110   2.435       .  S
Zr85        O104   2.503       .  S
Zr85        O112   2.540       .  S
Zr85        O100   2.533       .  S
Zr85         O91   2.385       .  S
Zr85         O92   2.409       .  S
Zr85         O93   2.391       .  S
Zr85         O94   2.412   1_554  S
Zr86        O105   2.437       .  S
Zr86         O98   2.434       .  S
Zr86         O99   2.335       .  S
Zr86         O92   2.396       .  S
Zr86         O93   2.370       .  S
Zr87         O89   2.433       .  S
Zr87        O111   2.439       .  S
Zr87        O113   2.390       .  S
Zr87         O91   2.379   1_556  S
Zr87         O94   2.377       .  S
Zr88        O114   2.433       .  S
Zr88        O115   2.441       .  S
Zr88         O90   2.427       .  S
Zr88         O91   2.335       .  S
Zr88         O92   2.327       .  S
O89         H126   0.989       .  S
O90         H121   0.989       .  S
O90         H135   0.986       .  S
O92         H118   0.960       .  S
O93        Zr103   2.389   1_554  S
O94        Zr103   2.390       .  S
O94         H119   0.966       .  S
C95        C2483   1.502   1_556  S
C96        C2808   1.526       .  S
C97        C2864   1.555       .  S
O98         H134   0.988       .  S
O99         C101   1.263       .  A
O100        C101   1.311       .  A
C101       C2497   1.482       .  S
O102       Zr103   2.428       .  S
O102        H131   0.989       .  S
Zr103       O106   2.443       .  S
Zr103       O107   2.442       .  S
Zr103       O108   2.329       .  S
O104        C109   1.298   1_554  A
O105        H122   0.990       .  S
O105        H137   0.989       .  S
O106        H123   0.988       .  S
O107        H127   0.987       .  S
O107        H136   0.989       .  S
O108        C109   1.254       .  A
C109       C2469   1.493       .  S
O110        H129   0.990       .  S
O110        H133   0.990       .  S
O111        H125   0.990       .  S
O111        H132   0.990       .  S
O112        C116   1.302   1_554  A
O113        C116   1.265       .  A
O114        H124   0.990       .  S
O115        H128   0.991       .  S
C116       C2455   1.525       .  S
C139       C2399   1.696       .  S
C139       C2413   1.684       .  S
C139       C2427   1.669       .  S
C139       C2441   1.693       .  S
C140       C2357   1.593       .  S
C140       C2371   1.636       .  S
C140       C2385   1.618   1_655  S
C140       C2430   1.679       .  S
C141       C2329   1.610       .  S
C141       C2343   1.622   1_556  S
C141       C2416   1.670       .  S
C141       C2458   1.619       .  S
C142       C2273   1.571   1_565  S
C142       C2287   1.607       .  S
C142       C2301   1.625       .  S
C142       C2315   1.687   1_565  S
C143       C2262   1.690       .  S
C143       C2318   1.649       .  S
C143       C2682   1.650       .  S
C143       C2766   1.691       .  S
C144       C2217   1.580       .  S
C144       C2231   1.643   1_554  S
C144       C2248   1.703       .  S
C144       C2486   1.616   1_455  S
C145       C2161   1.616       .  S
C145       C2178   1.622   1_554  S
C145       C2192   1.684       .  S
C145       C2203   1.654       .  S
C146       C2108   1.611       .  S
C146       C2119   1.619       .  S
C146       C2133   1.601       .  S
C146       C2147   1.692       .  S
C147       C2091   1.673       .  S
C147       C2150   1.690       .  S
C147       C2189   1.688       .  S
C147       C2245   1.698       .  S
C148       C2035   1.586       .  S
C148       C2049   1.679       .  S
C148       C2063   1.582       .  S
C148       C2077   1.636       .  S
Zr149       O150   2.432       .  S
Zr149       O151   2.535       .  S
Zr149       O152   2.550       .  S
Zr149       O155   2.591       .  S
Zr149       O157   2.420       .  S
Zr149       O158   2.415       .  S
Zr149       O159   2.444       .  S
Zr149       O160   2.349       .  S
O150        H206   0.990       .  S
O150        H214   0.990       .  S
O151        C171   1.285       .  A
O152        C173   1.299       .  A
O153       Zr163   2.397       .  S
O153        C172   1.270       .  A
O154       Zr162   2.357       .  S
O154        C173   1.255       .  A
O155        C172   1.319       .  A
O156       Zr164   2.342       .  S
O156        C171   1.250       .  A
O157       Zr162   2.389       .  S
O157       Zr164   2.375       .  S
O158       Zr163   2.362       .  S
O158       Zr164   2.409       .  S
O158        H193   0.962       .  S
O159       Zr162   2.427       .  S
O159       Zr179   2.401       .  S
O159        H196   0.957       .  S
O160       Zr163   2.363       .  S
O160       Zr179   2.336       .  S
Zr161       O186   2.434       .  S
Zr161       O180   2.523       .  S
Zr161       O188   2.525       .  S
Zr161       O176   2.514       .  S
Zr161       O167   2.394       .  S
Zr161       O168   2.439       .  S
Zr161       O169   2.391       .  S
Zr161       O170   2.445       .  S
Zr162       O181   2.432       .  S
Zr162       O174   2.429       .  S
Zr162       O175   2.399       .  S
Zr162       O168   2.386       .  S
Zr162       O169   2.385       .  S
Zr163       O165   2.431       .  S
Zr163       O187   2.442       .  S
Zr163       O189   2.362       .  S
Zr163       O167   2.383       .  S
Zr163       O170   2.404       .  S
Zr164       O190   2.431       .  S
Zr164       O191   2.439       .  S
Zr164       O166   2.442       .  S
Zr164       O167   2.309       .  S
Zr164       O168   2.338       .  S
O165        H202   0.987       .  S
O166        H197   0.988       .  S
O166        H211   0.990       .  S
O168        H194   0.956       .  S
O169       Zr179   2.395       .  S
O170       Zr179   2.405       .  S
O170        H195   0.967       .  S
C171       C2304   1.512       .  S
C172       C2080   1.534       .  S
C173       C2122   1.525       .  S
O174        H210   0.990       .  S
O175        C177   1.266       .  A
O176        C177   1.296       .  A
C177       C2024   1.522       .  S
O178       Zr179   2.447       .  S
O178        H207   0.989       .  S
Zr179       O182   2.452       .  S
Zr179       O183   2.435       .  S
Zr179       O184   2.347       .  S
O180        C185   1.285       .  A
O181        H198   0.988       .  S
O181        H213   0.985       .  S
O182        H199   0.988       .  S
O183        H203   0.990       .  S
O183        H212   0.986       .  S
O184        C185   1.240       .  A
C185       C1993   1.500       .  S
O186        H205   0.990       .  S
O186        H209   0.990       .  S
O187        H201   0.989       .  S
O187        H208   0.990       .  S
O188        C192   1.294       .  A
O189        C192   1.255       .  A
O190        H200   0.987       .  S
O191        H204   0.991       .  S
C192       C2007   1.483       .  S
Zr215       O216   2.439       .  S
Zr215       O217   2.602       .  S
Zr215       O218   2.531       .  S
Zr215       O221   2.600       .  S
Zr215       O223   2.400       .  S
Zr215       O224   2.419       .  S
Zr215       O225   2.464       .  S
Zr215       O226   2.379       .  S
O216        H272   0.990       .  S
O216        H280   0.989       .  S
O217        C237   1.308       .  A
O218        C239   1.295       .  A
O219       Zr229   2.375       .  S
O219        C238   1.261       .  A
O220       Zr228   2.399       .  S
O220        C239   1.265       .  A
O221        C238   1.311       .  A
O222       Zr230   2.348       .  S
O222        C237   1.253       .  A
O223       Zr228   2.380       .  S
O223       Zr230   2.393       .  S
O224       Zr229   2.423       .  S
O224       Zr230   2.411       .  S
O224        H259   0.965       .  S
O225       Zr228   2.376       .  S
O225       Zr245   2.356       .  S
O225        H262   0.946       .  S
O226       Zr229   2.329       .  S
O226       Zr245   2.340       .  S
Zr227       O252   2.429       .  S
Zr227       O246   2.531       .  S
Zr227       O254   2.572       .  S
Zr227       O242   2.551       .  S
Zr227       O233   2.347       .  S
Zr227       O234   2.420       .  S
Zr227       O235   2.395       .  S
Zr227       O236   2.412       .  S
Zr228       O247   2.437       .  S
Zr228       O240   2.426       .  S
Zr228       O241   2.341       .  S
Zr228       O234   2.412       .  S
Zr228       O235   2.367       .  S
Zr229       O231   2.436       .  S
Zr229       O253   2.432       .  S
Zr229       O255   2.347       .  S
Zr229       O233   2.354       .  S
Zr229       O236   2.385       .  S
Zr230       O256   2.431       .  S
Zr230       O257   2.441       .  S
Zr230       O232   2.439       .  S
Zr230       O233   2.323       .  S
Zr230       O234   2.346       .  S
O231        H268   0.990       .  S
O232        H263   0.989       .  S
O232        H277   0.990       .  S
O234        H260   0.963       .  S
O235       Zr245   2.384       .  S
O236       Zr245   2.396       .  S
O236        H261   0.964       .  S
C237       C2556   1.531       .  S
C238       C2175   1.512       .  S
C239       C2696   1.533       .  S
O240        H276   0.990       .  S
O241        C243   1.265       .  A
O242        C243   1.315       .  A
C243       C1965   1.501       .  S
O244       Zr245   2.443       .  S
O244        H273   0.990       .  S
Zr245       O248   2.431       .  S
Zr245       O249   2.434       .  S
Zr245       O250   2.355       .  S
O246        C251   1.292       .  A
O247        H264   0.990       .  S
O247        H279   0.986       .  S
O248        H265   0.990       .  S
O249        H269   0.987       .  S
O249        H278   0.985       .  S
O250        C251   1.256       .  A
C251       C2388   1.504       .  S
O252        H271   0.990       .  S
O252        H275   0.989       .  S
O253        H267   0.990       .  S
O253        H274   0.987       .  S
O254        C258   1.319       .  A
O255        C258   1.266       .  A
O256        H266   0.990       .  S
O257        H270   0.990       .  S
C258       C1979   1.487       .  S
Zr281       O282   2.433       .  S
Zr281       O283   2.532       .  S
Zr281       O284   2.526       .  S
Zr281       O287   2.531       .  S
Zr281       O289   2.390       .  S
Zr281       O290   2.410   1_455  S
Zr281       O291   2.414       .  S
Zr281       O292   2.385       .  S
O282        H338   0.990       .  S
O282        H346   0.990       .  S
O283        C303   1.303       .  A
O284        C305   1.302       .  A
O285       Zr295   2.428       .  S
O285        C304   1.276       .  A
O286       Zr294   2.263       .  S
O286        C305   1.249       .  A
O287        C304   1.301   1_455  A
O288       Zr296   2.336   1_455  S
O288        C303   1.254       .  A
O289       Zr294   2.392       .  S
O289       Zr296   2.405   1_455  S
O290       Zr295   2.366       .  S
O290       Zr296   2.404       .  S
O290        H325   0.967       .  S
O291       Zr294   2.395       .  S
O291       Zr311   2.399       .  S
O291        H328   0.964       .  S
O292       Zr295   2.354   1_455  S
O292       Zr311   2.341       .  S
Zr293       O318   2.437       .  S
Zr293       O312   2.560       .  S
Zr293       O320   2.532       .  S
Zr293       O308   2.632       .  S
Zr293       O299   2.419       .  S
Zr293       O300   2.378       .  S
Zr293       O301   2.378   1_655  S
Zr293       O302   2.452       .  S
Zr294       O313   2.421       .  S
Zr294       O306   2.437       .  S
Zr294       O307   2.337       .  S
Zr294       O300   2.362   1_455  S
Zr294       O301   2.364       .  S
Zr295       O297   2.438       .  S
Zr295       O319   2.437       .  S
Zr295       O321   2.363       .  S
Zr295       O299   2.386       .  S
Zr295       O302   2.401       .  S
Zr296       O322   2.446       .  S
Zr296       O323   2.439       .  S
Zr296       O298   2.454       .  S
Zr296       O299   2.320       .  S
Zr296       O300   2.323       .  S
O297        H334   0.989       .  S
O298        H329   0.987   1_655  S
O298        H343   0.988       .  S
O300        H326   0.949       .  S
O301       Zr311   2.400       .  S
O302       Zr311   2.397   1_655  S
O302        H327   0.966       .  S
C303       C2374   1.510       .  S
C304       C1937   1.530       .  S
C305       C1951   1.449       .  S
O306        H342   0.991       .  S
O307        C309   1.262       .  A
O308        C309   1.330   1_655  A
C309       C2234   1.520       .  S
O310       Zr311   2.444       .  S
O310        H339   0.991       .  S
Zr311       O314   2.445       .  S
Zr311       O315   2.432   1_455  S
Zr311       O316   2.342   1_455  S
O312        C317   1.295       .  A
O313        H330   0.990       .  S
O313        H345   0.990       .  S
O314        H331   0.987       .  S
O315        H335   0.990       .  S
O315        H344   0.988       .  S
O316        C317   1.239       .  A
C317       C2752   1.510       .  S
O318        H337   0.990       .  S
O318        H341   0.990       .  S
O319        H333   0.989       .  S
O319        H340   0.989       .  S
O320        C324   1.301       .  A
O321        C324   1.260       .  A
O322        H332   0.988       .  S
O323        H336   0.990       .  S
C324       C2794   1.487       .  S
C347       C1926   1.659       .  S
C347       C1954   1.587       .  S
C347       C1982   1.616       .  S
C347       C2010   1.588       .  S
Zr348       O349   2.434       .  S
Zr348       O350   2.537       .  S
Zr348       O351   2.549       .  S
Zr348       O354   2.585       .  S
Zr348       O356   2.402       .  S
Zr348       O357   2.408       .  S
Zr348       O358   2.430       .  S
Zr348       O359   2.393       .  S
O349        H405   0.990       .  S
O349        H413   0.990       .  S
O350        C370   1.295       .  A
O351        C372   1.315       .  A
O352       Zr362   2.347       .  S
O352        C371   1.252       .  A
O353       Zr361   2.319       .  S
O353        C372   1.258       .  A
O354        C371   1.317       .  A
O355       Zr363   2.339       .  S
O355        C370   1.251       .  A
O356       Zr361   2.325       .  S
O356       Zr363   2.378       .  S
O357       Zr362   2.391       .  S
O357       Zr363   2.424       .  S
O357        H392   0.964       .  S
O358       Zr361   2.406       .  S
O358       Zr378   2.332       .  S
O358        H395   0.961       .  S
O359       Zr362   2.376       .  S
O359       Zr378   2.356       .  S
Zr360       O385   2.435       .  S
Zr360       O379   2.483       .  S
Zr360       O387   2.583       .  S
Zr360       O375   2.539       .  S
Zr360       O366   2.317       .  S
Zr360       O367   2.434       .  S
Zr360       O368   2.425       .  S
Zr360       O369   2.447       .  S
Zr361       O380   2.455       .  S
Zr361       O373   2.425       .  S
Zr361       O374   2.349       .  S
Zr361       O367   2.386       .  S
Zr361       O368   2.392       .  S
Zr362       O364   2.431       .  S
Zr362       O386   2.453       .  S
Zr362       O388   2.356       .  S
Zr362       O366   2.299       .  S
Zr362       O369   2.415       .  S
Zr363       O389   2.441       .  S
Zr363       O390   2.446       .  S
Zr363       O365   2.443       .  S
Zr363       O366   2.285       .  S
Zr363       O367   2.370       .  S
O364        H401   0.984       .  S
O365        H396   0.988       .  S
O365        H410   0.987       .  S
O367        H393   0.949       .  S
O368       Zr378   2.425       .  S
O369       Zr378   2.399       .  S
O369        H394   0.956       .  S
C370       C2066   1.490       .  S
C371       C1909   1.523       .  S
C372       C2105   1.484       .  S
O373        H409   0.990       .  S
O374        C376   1.258       .  A
O375        C376   1.291       .  A
C376       C1881   1.522       .  S
O377       Zr378   2.444       .  S
O377        H406   0.990       .  S
Zr378       O381   2.437       .  S
Zr378       O382   2.450       .  S
Zr378       O383   2.348       .  S
O379        C384   1.285       .  A
O380        H397   0.990       .  S
O380        H412   0.986       .  S
O381        H398   0.990       .  S
O382        H402   0.988       .  S
O382        H411   0.985       .  S
O383        C384   1.254       .  A
C384       C1895   1.495       .  S
O385        H404   0.990       .  S
O385        H408   0.990       .  S
O386        H400   0.987       .  S
O386        H407   0.990       .  S
O387        C391   1.303       .  A
O388        C391   1.252       .  A
O389        H399   0.988       .  S
O390        H403   0.990       .  S
C391       C1867   1.482       .  S
C414       C1825   1.665       .  S
C414       C1839   1.640       .  S
C414       C1853   1.660       .  S
C414       C1923   1.666       .  S
C415       C1797   1.602       .  S
C415       C1811   1.638       .  S
C415       C1856   1.672       .  S
C415       C2654   1.576       .  S
C416       C1783   1.597       .  S
C416       C1842   1.651       .  S
C416       C1898   1.588   1_556  S
C416       C2472   1.610       .  S
C417       C1727   1.625       .  S
C417       C1741   1.620       .  S
C417       C1755   1.679       .  S
C417       C1769   1.631       .  S
Zr418       O419   2.433       .  S
Zr418       O420   2.541       .  S
Zr418       O421   2.615       .  S
Zr418       O424   2.547       .  S
Zr418       O426   2.406       .  S
Zr418       O427   2.435       .  S
Zr418       O428   2.430       .  S
Zr418       O429   2.407       .  S
O419        H475   0.989       .  S
O419        H483   0.990       .  S
O420        C440   1.296       .  A
O421        C442   1.314       .  A
O422       Zr432   2.376       .  S
O422        C441   1.257       .  A
O423       Zr431   2.379       .  S
O423        C442   1.263       .  A
O424        C441   1.306       .  A
O425       Zr433   2.354       .  S
O425        C440   1.257       .  A
O426       Zr431   2.394       .  S
O426       Zr433   2.399       .  S
O427       Zr432   2.376       .  S
O427       Zr433   2.357       .  S
O427        H462   0.961       .  S
O428       Zr431   2.394       .  S
O428       Zr448   2.356       .  S
O428        H465   0.955       .  S
O429       Zr432   2.393       .  S
O429       Zr448   2.322       .  S
Zr430       O455   2.434       .  S
Zr430       O449   2.608       .  S
Zr430       O457   2.554       .  S
Zr430       O445   2.574       .  S
Zr430       O436   2.433       .  S
Zr430       O437   2.437       .  S
Zr430       O438   2.398       .  S
Zr430       O439   2.392       .  S
Zr431       O450   2.431       .  S
Zr431       O443   2.435       .  S
Zr431       O444   2.398       .  S
Zr431       O437   2.373       .  S
Zr431       O438   2.405       .  S
Zr432       O434   2.438       .  S
Zr432       O456   2.436       .  S
Zr432       O458   2.358       .  S
Zr432       O436   2.385       .  S
Zr432       O439   2.372       .  S
Zr433       O459   2.435       .  S
Zr433       O460   2.435       .  S
Zr433       O435   2.433       .  S
Zr433       O436   2.378       .  S
Zr433       O437   2.333       .  S
O434        H471   0.989       .  S
O435        H466   0.990       .  S
O435        H480   0.989       .  S
O437        H463   0.955       .  S
O438       Zr448   2.409       .  S
O439       Zr448   2.377       .  S
O439        H464   0.964       .  S
C440       C1685   1.522       .  S
C441       C1671   1.521       .  S
C442       C2346   1.546       .  S
O443        H479   0.990       .  S
O444        C446   1.266       .  A
O445        C446   1.308       .  A
C446       C1699   1.554       .  S
O447       Zr448   2.421       .  S
O447        H476   0.990       .  S
Zr448       O451   2.422       .  S
Zr448       O452   2.442       .  S
Zr448       O453   2.307       .  S
O449        C454   1.314       .  A
O450        H467   0.989       .  S
O450        H482   0.988       .  S
O451        H468   0.990       .  S
O452        H472   0.991       .  S
O452        H481   0.987       .  S
O453        C454   1.241       .  A
C454       C1713   1.515       .  S
O455        H474   0.990       .  S
O455        H478   0.990       .  S
O456        H470   0.989       .  S
O456        H477   0.989       .  S
O457        C461   1.308       .  A
O458        C461   1.253       .  A
O459        H469   0.990       .  S
O460        H473   0.989       .  S
C461       C1744   1.521       .  S
C484       C1629   1.587       .  S
C484       C1643   1.672       .  S
C484       C1660   1.567       .  S
C484       C1702   1.636       .  S
Zr485       O486   2.430       .  S
Zr485       O487   2.515       .  S
Zr485       O488   2.572       .  S
Zr485       O491   2.566       .  S
Zr485       O493   2.394       .  S
Zr485       O494   2.422   1_565  S
Zr485       O495   2.386       .  S
Zr485       O496   2.336       .  S
O486        H542   0.990       .  S
O486        H550   0.990       .  S
O487        C507   1.293       .  A
O488        C509   1.317       .  A
O489       Zr499   2.373       .  S
O489        C508   1.271   1_545  A
O490       Zr498   2.265       .  S
O490        C509   1.248       .  A
O491        C508   1.318       .  A
O492       Zr500   2.346   1_565  S
O492        C507   1.257       .  A
O493       Zr498   2.401       .  S
O493       Zr500   2.411   1_565  S
O494       Zr499   2.364       .  S
O494       Zr500   2.381       .  S
O494        H529   0.957       .  S
O495       Zr498   2.404       .  S
O495       Zr515   2.365       .  S
O495        H532   0.963       .  S
O496       Zr499   2.315   1_565  S
O496       Zr515   2.323       .  S
Zr497       O522   2.436       .  S
Zr497       O516   2.580   1_545  S
Zr497       O524   2.527       .  S
Zr497       O512   2.591       .  S
Zr497       O503   2.436       .  S
Zr497       O504   2.418   1_545  S
Zr497       O505   2.356   1_545  S
Zr497       O506   2.439       .  S
Zr498       O517   2.445       .  S
Zr498       O510   2.441       .  S
Zr498       O511   2.338       .  S
Zr498       O504   2.365       .  S
Zr498       O505   2.348       .  S
Zr499       O501   2.432       .  S
Zr499       O523   2.440       .  S
Zr499       O525   2.363       .  S
Zr499       O503   2.361       .  S
Zr499       O506   2.423       .  S
Zr500       O526   2.434       .  S
Zr500       O527   2.442       .  S
Zr500       O502   2.441       .  S
Zr500       O503   2.336       .  S
Zr500       O504   2.327   1_545  S
O501        H538   0.990       .  S
O502        H533   0.990       .  S
O502        H547   0.987   1_545  S
O504        H530   0.958       .  S
O505       Zr515   2.389       .  S
O506       Zr515   2.405   1_545  S
O506        H531   0.966       .  S
C507       C2738   1.515       .  S
C508       C2850   1.491       .  S
C509       C2780   1.490       .  S
O510        H546   0.990       .  S
O511        C513   1.263       .  A
O512        C513   1.322   1_545  A
C513       C1601   1.500       .  S
O514       Zr515   2.442       .  S
O514        H543   0.990       .  S
Zr515       O518   2.440       .  S
Zr515       O519   2.434       .  S
Zr515       O520   2.340       .  S
O516        C521   1.315       .  A
O517        H534   0.990       .  S
O517        H549   0.989       .  S
O518        H535   0.990       .  S
O519        H539   0.988       .  S
O519        H548   0.989   1_565  S
O520        C521   1.255       .  A
C521       C1814   1.523       .  S
O522        H541   0.990       .  S
O522        H545   0.990       .  S
O523        H537   0.989       .  S
O523        H544   0.990       .  S
O524        C528   1.287       .  A
O525        C528   1.254       .  A
O526        H536   0.990       .  S
O527        H540   0.990       .  S
C528       C1615   1.491       .  S
C551       C1587   1.642       .  S
C551       C1618   1.584       .  S
C551       C2444   1.680       .  S
C551       C2612   1.596       .  S
Zr552       O553   2.435       .  S
Zr552       O554   2.530       .  S
Zr552       O555   2.544       .  S
Zr552       O558   2.560       .  S
Zr552       O560   2.382       .  S
Zr552       O561   2.402       .  S
Zr552       O562   2.427       .  S
Zr552       O563   2.349       .  S
O553        H609   0.990       .  S
O553        H617   0.990       .  S
O554        C574   1.307       .  A
O555        C576   1.301       .  A
O556       Zr566   2.378       .  S
O556        C575   1.267       .  A
O557       Zr565   2.392       .  S
O557        C576   1.264       .  A
O558        C575   1.309       .  A
O559       Zr567   2.292       .  S
O559        C574   1.250       .  A
O560       Zr565   2.397       .  S
O560       Zr567   2.383       .  S
O561       Zr566   2.373       .  S
O561       Zr567   2.401       .  S
O561        H596   0.964       .  S
O562       Zr565   2.377       .  S
O562       Zr582   2.357       .  S
O562        H599   0.957       .  S
O563       Zr566   2.339       .  S
O563       Zr582   2.308       .  S
Zr564       O589   2.434       .  S
Zr564       O583   2.636       .  S
Zr564       O591   2.630       .  S
Zr564       O579   2.611       .  S
Zr564       O570   2.419       .  S
Zr564       O571   2.447       .  S
Zr564       O572   2.408       .  S
Zr564       O573   2.397       .  S
Zr565       O584   2.435       .  S
Zr565       O577   2.431       .  S
Zr565       O578   2.366       .  S
Zr565       O571   2.401       .  S
Zr565       O572   2.404       .  S
Zr566       O568   2.438       .  S
Zr566       O590   2.448       .  S
Zr566       O592   2.370       .  S
Zr566       O570   2.389       .  S
Zr566       O573   2.376       .  S
Zr567       O593   2.433       .  S
Zr567       O594   2.419       .  S
Zr567       O569   2.445       .  S
Zr567       O570   2.353       .  S
Zr567       O571   2.336       .  S
O568        H605   0.989       .  S
O569        H600   0.989       .  S
O569        H614   0.989       .  S
O571        H597   0.963       .  S
O572       Zr582   2.372       .  S
O573       Zr582   2.417       .  S
O573        H598   0.965       .  S
C574       C1573   1.475       .  S
C575       C1657   1.464       .  S
C576       C1772   1.531       .  S
O577        H613   0.989       .  S
O578        C580   1.258       .  A
O579        C580   1.313       .  A
C580       C1590   1.558       .  S
O581       Zr582   2.427       .  S
O581        H610   0.990       .  S
Zr582       O585   2.431       .  S
Zr582       O586   2.436       .  S
Zr582       O587   2.285       .  S
O583        C588   1.318       .  A
O584        H601   0.985       .  S
O584        H616   0.988       .  S
O585        H602   0.990       .  S
O586        H606   0.991       .  S
O586        H615   0.991       .  S
O587        C588   1.237       .  A
C588       C1545   1.522       .  S
O589        H608   0.990       .  S
O589        H612   0.990       .  S
O590        H604   0.988       .  S
O590        H611   0.988       .  S
O591        C595   1.319       .  A
O592        C595   1.255       .  A
O593        H603   0.990       .  S
O594        H607   0.988       .  S
C595       C1559   1.554       .  S
C618       C1489   1.686       .  S
C618       C1503   1.696       .  S
C618       C1517   1.695       .  S
C618       C1531   1.693       .  S
C619       C1475   1.581       .  S
C619       C1520   1.726       .  S
C619       C1562   1.646       .  S
C619       C1604   1.632       .  S
C620       C1461   1.601       .  S
C620       C1506   1.694       .  S
C620       C1940   1.629       .  S
C620       C2021   1.607   1_655  S
C621       C1534   1.686       .  S
C621       C1674   1.620       .  S
C621       C1870   1.592       .  S
C621       C2500   1.609       .  S
C622       C1433   1.617       .  S
C622       C1447   1.701       .  S
C622       C1968   1.622       .  S
C622       C1996   1.608       .  S
Zr623       O624   2.433       .  S
Zr623       O625   2.493       .  S
Zr623       O626   2.595       .  S
Zr623       O629   2.585       .  S
Zr623       O631   2.408   1_554  S
Zr623       O632   2.450       .  S
Zr623       O633   2.382       .  S
Zr623       O634   2.284       .  S
O624        H680   0.990       .  S
O624        H688   0.990       .  S
O625        C645   1.282       .  A
O626        C647   1.321   1_554  A
O627       Zr637   2.388       .  S
O627        C646   1.274       .  A
O628       Zr636   2.276       .  S
O628        C647   1.255       .  A
O629        C646   1.323       .  A
O630       Zr638   2.366       .  S
O630        C645   1.255   1_556  A
O631       Zr636   2.362       .  S
O631       Zr638   2.395       .  S
O632       Zr637   2.347       .  S
O632       Zr638   2.405   1_554  S
O632        H667   0.953       .  S
O633       Zr636   2.420   1_554  S
O633       Zr653   2.338       .  S
O633        H670   0.966       .  S
O634       Zr637   2.295       .  S
O634       Zr653   2.315       .  S
Zr635       O660   2.435       .  S
Zr635       O654   2.565       .  S
Zr635       O662   2.552       .  S
Zr635       O650   2.578       .  S
Zr635       O641   2.429       .  S
Zr635       O642   2.425       .  S
Zr635       O643   2.393       .  S
Zr635       O644   2.433   1_556  S
Zr636       O655   2.447       .  S
Zr636       O648   2.434       .  S
Zr636       O649   2.366       .  S
Zr636       O642   2.377       .  S
Zr636       O643   2.390       .  S
Zr637       O639   2.430       .  S
Zr637       O661   2.444       .  S
Zr637       O663   2.366   1_554  S
Zr637       O641   2.373   1_554  S
Zr637       O644   2.399       .  S
Zr638       O664   2.432       .  S
Zr638       O665   2.440       .  S
Zr638       O640   2.442       .  S
Zr638       O641   2.362       .  S
Zr638       O642   2.339       .  S
O639        H676   0.990       .  S
O640        H671   0.989       .  S
O640        H685   0.989       .  S
O642        H668   0.962       .  S
O643       Zr653   2.389   1_556  S
O644       Zr653   2.433       .  S
O644        H669   0.963       .  S
C645       C1786   1.499   1_554  S
C646       C1419   1.501       .  S
C647       C2332   1.485       .  S
O648        H684   0.991       .  S
O649        C651   1.266       .  A
O650        C651   1.319       .  A
C651       C2570   1.516       .  S
O652       Zr653   2.439       .  S
O652        H681   0.991       .  S
Zr653       O656   2.428       .  S
Zr653       O657   2.436       .  S
Zr653       O658   2.330       .  S
O654        C659   1.303   1_556  A
O655        H672   0.991       .  S
O655        H687   0.991       .  S
O656        H673   0.990       .  S
O657        H677   0.992       .  S
O657        H686   0.984       .  S
O658        C659   1.245       .  A
C659       C2514   1.523       .  S
O660        H679   0.990       .  S
O660        H683   0.990       .  S
O661        H675   0.989       .  S
O661        H682   0.989       .  S
O662        C666   1.299       .  A
O663        C666   1.253       .  A
O664        H674   0.990       .  S
O665        H678   0.990       .  S
C666       C2164   1.510   1_556  S
C689       C1405   1.690       .  S
C689       C1422   1.612       .  S
C689       C1688   1.622       .  S
C689       C1884   1.610       .  S
C690       C1377   1.700       .  S
C690       C1391   1.675       .  S
C690       C1408   1.689       .  S
C690       C1450   1.707       .  S
C691       C1363   1.612       .  S
C691       C1380   1.670       .  S
C691       C1548   1.634       .  S
C691       C2598   1.597       .  S
Zr692       O693   2.439       .  S
Zr692       O694   2.517       .  S
Zr692       O695   2.494   1_545  S
Zr692       O698   2.329       .  S
Zr692       O700   2.386       .  S
Zr692       O701   2.384       .  S
Zr692       O702   2.377   1_545  S
Zr692       O703   2.444   1_545  S
O693        H749   0.990       .  S
O693        H757   0.989       .  S
O694        C714   1.300       .  A
O695        C716   1.298       .  A
O696       Zr706   2.521   1_545  S
O696        C715   1.305       .  A
O697       Zr705   2.495       .  S
O697        C716   1.301       .  A
O698        C715   1.266       .  A
O699       Zr707   2.417       .  S
O699        C714   1.284       .  A
O700       Zr705   2.397   1_545  S
O700       Zr707   2.368       .  S
O701       Zr706   2.337   1_545  S
O701       Zr707   2.397       .  S
O701        H736   0.960       .  S
O702       Zr705   2.404       .  S
O702       Zr722   2.329       .  S
O702        H739   0.951       .  S
O703       Zr706   2.375       .  S
O703       Zr722   2.397       .  S
Zr704       O729   2.437       .  S
Zr704       O723   2.498       .  S
Zr704       O731   2.431       .  S
Zr704       O719   2.306       .  S
Zr704       O710   2.326       .  S
Zr704       O711   2.438       .  S
Zr704       O712   2.290       .  S
Zr704       O713   2.383       .  S
Zr705       O724   2.431       .  S
Zr705       O717   2.427   1_565  S
Zr705       O718   2.558       .  S
Zr705       O711   2.385       .  S
Zr705       O712   2.334       .  S
Zr706       O708   2.436       .  S
Zr706       O730   2.437   1_565  S
Zr706       O732   2.515       .  S
Zr706       O710   2.334       .  S
Zr706       O713   2.404       .  S
Zr707       O733   2.430       .  S
Zr707       O734   2.442       .  S
Zr707       O709   2.444       .  S
Zr707       O710   2.367   1_545  S
Zr707       O711   2.403   1_545  S
O708        H745   0.990       .  S
O709        H740   0.991       .  S
O709        H754   0.990       .  S
O711        H737   0.963       .  S
O712       Zr722   2.330       .  S
O713       Zr722   2.368       .  S
O713        H738   0.965       .  S
C714       C1366   1.515       .  S
C715       C2276   1.466       .  S
C716       C1800   1.529       .  S
O717        H753   0.990       .  S
O718        C720   1.314       .  A
O719        C720   1.265       .  A
C720       C1478   1.484       .  S
O721       Zr722   2.429       .  S
O721        H750   0.990       .  S
Zr722       O725   2.442       .  S
Zr722       O726   2.439       .  S
Zr722       O727   2.440       .  S
O723        C728   1.297       .  A
O724        H741   0.990       .  S
O724        H756   0.987       .  S
O725        H742   0.989       .  S
O726        H746   0.990       .  S
O726        H755   0.989       .  S
O727        C728   1.285       .  A
C728       C2038   1.459       .  S
O729        H748   0.990       .  S
O729        H752   0.990       .  S
O730        H744   0.990       .  S
O730        H751   0.990       .  S
O731        C735   1.288       .  A
O732        C735   1.302       .  A
O733        H743   0.989       .  S
O734        H747   0.990       .  S
C735       C1349   1.511   1_565  S
C758       C1321   1.693       .  S
C758       C1335   1.600       .  S
C758       C1352   1.594       .  S
C758       C1912   1.637   1_545  S
C759       C1296   1.624       .  S
C759       C1307   1.611       .  S
C759       C1716   1.609   1_455  S
C759       C2094   1.676       .  S
Zr760       O761   2.433       .  S
Zr760       O762   2.508       .  S
Zr760       O763   2.573       .  S
Zr760       O766   2.557       .  S
Zr760       O768   2.407   1_655  S
Zr760       O769   2.428       .  S
Zr760       O770   2.419       .  S
Zr760       O771   2.401       .  S
O761        H817   0.989       .  S
O761        H825   0.990       .  S
O762        C782   1.292       .  A
O763        C784   1.302       .  A
O764       Zr774   2.391       .  S
O764        C783   1.263       .  A
O765       Zr773   2.368       .  S
O765        C784   1.258   1_455  A
O766        C783   1.308       .  A
O767       Zr775   2.347       .  S
O767        C782   1.254   1_455  A
O768       Zr773   2.367       .  S
O768       Zr775   2.394       .  S
O769       Zr774   2.377       .  S
O769       Zr775   2.376   1_655  S
O769        H804   0.959       .  S
O770       Zr773   2.394   1_655  S
O770       Zr790   2.357       .  S
O770        H807   0.948       .  S
O771       Zr774   2.387       .  S
O771       Zr790   2.341       .  S
Zr772       O797   2.435       .  S
Zr772       O791   2.524       .  S
Zr772       O799   2.554       .  S
Zr772       O787   2.570       .  S
Zr772       O778   2.408   1_455  S
Zr772       O779   2.428       .  S
Zr772       O780   2.398       .  S
Zr772       O781   2.415   1_455  S
Zr773       O792   2.431       .  S
Zr773       O785   2.433       .  S
Zr773       O786   2.372       .  S
Zr773       O779   2.385       .  S
Zr773       O780   2.383       .  S
Zr774       O776   2.436       .  S
Zr774       O798   2.436       .  S
Zr774       O800   2.372       .  S
Zr774       O778   2.378       .  S
Zr774       O781   2.378       .  S
Zr775       O801   2.432   1_455  S
Zr775       O802   2.419       .  S
Zr775       O777   2.438       .  S
Zr775       O778   2.336   1_455  S
Zr775       O779   2.329       .  S
O776        H813   0.990       .  S
O777        H808   0.988       .  S
O777        H822   0.989       .  S
O779        H805   0.959       .  S
O780       Zr790   2.398   1_455  S
O781       Zr790   2.380       .  S
O781        H806   0.965       .  S
C782       C1279   1.498   1_655  S
C783       C1730   1.537       .  S
C784       C1293   1.530   1_655  S
O785        H821   0.990       .  S
O786        C788   1.258       .  A
O787        C788   1.306       .  A
C788       C1436   1.542       .  S
O789       Zr790   2.437       .  S
O789        H818   0.989       .  S
Zr790       O793   2.442       .  S
Zr790       O794   2.434       .  S
Zr790       O795   2.320       .  S
O791        C796   1.303   1_455  A
O792        H809   0.988       .  S
O792        H824   0.987       .  S
O793        H810   0.988       .  S
O794        H814   0.986       .  S
O794        H823   0.989       .  S
O795        C796   1.246       .  A
C796       C1464   1.494       .  S
O797        H816   0.990       .  S
O797        H820   0.990       .  S
O798        H812   0.989       .  S
O798        H819   0.989       .  S
O799        C803   1.303   1_455  A
O800        C803   1.259       .  A
O801        H811   0.990   1_655  S
O802        H815   0.990       .  S
C803       C2360   1.499       .  S
C826       C1268   1.610       .  S
C826       C1282   1.599       .  S
C826       C1576   1.606   1_455  S
C826       C2259   1.662       .  S
C827       C1223   1.651       .  S
C827       C1240   1.603       .  S
C827       C1251   1.625   1_556  S
C827       C1828   1.657       .  S
Zr828       O829   2.435       .  S
Zr828       O830   2.494       .  S
Zr828       O831   2.456       .  S
Zr828       O834   2.329   1_545  S
Zr828       O836   2.387   1_655  S
Zr828       O837   2.381   1_554  S
Zr828       O838   2.402   1_545  S
Zr828       O839   2.426   1_545  S
O829        H885   0.989       .  S
O829        H893   0.988       .  S
O830        C850   1.295   1_554  A
O831        C852   1.289   1_545  A
O832       Zr842   2.514   1_545  S
O832        C851   1.295   1_556  A
O833       Zr841   2.530       .  S
O833        C852   1.308   1_455  A
O834        C851   1.259   1_565  A
O835       Zr843   2.422   1_655  S
O835        C850   1.285       .  A
O836       Zr841   2.408   1_545  S
O836       Zr843   2.370   1_554  S
O837       Zr842   2.335   1_545  S
O837       Zr843   2.376   1_655  S
O837        H872   0.960       .  S
O838       Zr841   2.418   1_655  S
O838       Zr858   2.347       .  S
O838        H875   0.956       .  S
O839       Zr842   2.377   1_554  S
O839       Zr858   2.374       .  S
Zr840       O865   2.436       .  S
Zr840       O859   2.490       .  S
Zr840       O867   2.415       .  S
Zr840       O855   2.278       .  S
Zr840       O846   2.337       .  S
Zr840       O847   2.435       .  S
Zr840       O848   2.309   1_556  S
Zr840       O849   2.374   1_455  S
Zr841       O860   2.433       .  S
Zr841       O853   2.434   1_565  S
Zr841       O854   2.582       .  S
Zr841       O847   2.393   1_554  S
Zr841       O848   2.346       .  S
Zr842       O844   2.434       .  S
Zr842       O866   2.436   1_565  S
Zr842       O868   2.504       .  S
Zr842       O846   2.326   1_655  S
Zr842       O849   2.401       .  S
Zr843       O869   2.429       .  S
Zr843       O870   2.434       .  S
Zr843       O845   2.429   1_556  S
Zr843       O846   2.364   1_545  S
Zr843       O847   2.401   1_545  S
O844        H881   0.990       .  S
O845        H876   0.990   1_554  S
O845        H890   0.989       .  S
O847        H873   0.964       .  S
O848       Zr858   2.344   1_455  S
O849       Zr858   2.376   1_556  S
O849        H874   0.965       .  S
C850       C1195   1.501       .  S
C851       C2836   1.484       .  S
C852       C1209   1.530       .  S
O853        H889   0.990       .  S
O854        C856   1.317   1_554  A
O855        C856   1.259       .  A
C856       C1237   1.486       .  S
O857       Zr858   2.432       .  S
O857        H886   0.990       .  S
Zr858       O861   2.436       .  S
Zr858       O862   2.440   1_554  S
Zr858       O863   2.434   1_655  S
O859        C864   1.295   1_556  A
O860        H877   0.989       .  S
O860        H892   0.990       .  S
O861        H878   0.989       .  S
O862        H882   0.990   1_556  S
O862        H891   0.987       .  S
O863        C864   1.283       .  A
C864       C2220   1.501       .  S
O865        H884   0.990       .  S
O865        H888   0.990       .  S
O866        H880   0.990   1_545  S
O866        H887   0.990       .  S
O867        C871   1.281       .  A
O868        C871   1.305   1_655  A
O869        H879   0.989       .  S
O870        H883   0.990       .  S
C871       C2724   1.467       .  S
C894       C1170   1.599       .  S
C894       C1181   1.604   1_655  S
C894       C1212   1.627       .  S
C894       C1492   1.668       .  S
C895       C1139   1.623   1_556  S
C895       C1153   1.631       .  S
C895       C1198   1.586       .  S
C895       C2402   1.662       .  S
Zr896       O897   2.431       .  S
Zr896       O898   2.536       .  S
Zr896       O899   2.559       .  S
Zr896       O902   2.528       .  S
Zr896       O904   2.371       .  S
Zr896       O905   2.444       .  S
Zr896       O906   2.417       .  S
Zr896       O907   2.419       .  S
O897        H953   0.990       .  S
O897        H961   0.990       .  S
O898        C918   1.293       .  A
O899        C920   1.309       .  A
O900       Zr910   2.374       .  S
O900        C919   1.254       .  A
O901       Zr909   2.407       .  S
O901        C920   1.268   1_554  A
O902        C919   1.293       .  A
O903       Zr911   2.361       .  S
O903        C918   1.249       .  A
O904       Zr909   2.364   1_556  S
O904       Zr911   2.396       .  S
O905       Zr910   2.418       .  S
O905       Zr911   2.398       .  S
O905        H940   0.966       .  S
O906       Zr909   2.371   1_556  S
O906       Zr926   2.339       .  S
O906        H943   0.957       .  S
O907       Zr910   2.376       .  S
O907       Zr926   2.330       .  S
Zr908       O933   2.435       .  S
Zr908       O927   2.617       .  S
Zr908       O935   2.628       .  S
Zr908       O923   2.602       .  S
Zr908       O914   2.365   1_554  S
Zr908       O915   2.405       .  S
Zr908       O916   2.381       .  S
Zr908       O917   2.376   1_554  S
Zr909       O928   2.420       .  S
Zr909       O921   2.423       .  S
Zr909       O922   2.278       .  S
Zr909       O915   2.458       .  S
Zr909       O916   2.398       .  S
Zr910       O912   2.438       .  S
Zr910       O934   2.434       .  S
Zr910       O936   2.380       .  S
Zr910       O914   2.329       .  S
Zr910       O917   2.347       .  S
Zr911       O937   2.425       .  S
Zr911       O938   2.446   1_556  S
Zr911       O913   2.453   1_556  S
Zr911       O914   2.347       .  S
Zr911       O915   2.397   1_556  S
O912        H949   0.989       .  S
O913        H944   0.988       .  S
O913        H958   0.989       .  S
O915        H941   0.968       .  S
O916       Zr926   2.379   1_554  S
O917       Zr926   2.412       .  S
O917        H942   0.966       .  S
C918       C2528   1.520       .  S
C919       C2668   1.481       .  S
C920       C2206   1.553   1_556  S
O921        H957   0.987       .  S
O922        C924   1.242       .  A
O923        C924   1.317       .  A
C924       C1125   1.498       .  S
O925       Zr926   2.433       .  S
O925        H954   0.990       .  S
Zr926       O929   2.436   1_556  S
Zr926       O930   2.430       .  S
Zr926       O931   2.281       .  S
O927        C932   1.323       .  A
O928        H945   0.988       .  S
O928        H960   0.987       .  S
O929        H946   0.990       .  S
O930        H950   0.990       .  S
O930        H959   0.990       .  S
O931        C932   1.248   1_556  A
C932       C1156   1.514       .  S
O933        H952   0.990       .  S
O933        H956   0.990       .  S
O934        H948   0.986       .  S
O934        H955   0.987       .  S
O935        C939   1.326   1_554  A
O936        C939   1.274       .  A
O937        H947   0.990       .  S
O938        H951   0.988       .  S
C939       C1226   1.531       .  S
Zr962       O963   2.434       .  S
Zr962       O964   2.523       .  S
Zr962       O965   2.568       .  S
Zr962       O968   2.589       .  S
Zr962       O970   2.422       .  S
Zr962       O971   2.431       .  S
Zr962       O972   2.423       .  S
Zr962       O973   2.335       .  S
O963       H1019   0.990       .  S
O963       H1027   0.990       .  S
O964        C984   1.287       .  A
O965        C986   1.303       .  A
O966       Zr976   2.337       .  S
O966        C985   1.263   1_545  A
O967       Zr975   2.356       .  S
O967        C986   1.258       .  A
O968        C985   1.323       .  A
O969       Zr977   2.353       .  S
O969        C984   1.255       .  A
O970       Zr975   2.366       .  S
O970       Zr977   2.383       .  S
O971       Zr976   2.366   1_565  S
O971       Zr977   2.416       .  S
O971       H1006   0.958   1_565  S
O972       Zr975   2.408       .  S
O972       Zr992   2.359       .  S
O972       H1009   0.949       .  S
O973       Zr976   2.339   1_565  S
O973       Zr992   2.310       .  S
Zr974       O999   2.436       .  S
Zr974       O993   2.514   1_545  S
Zr974      O1001   2.573       .  S
Zr974       O989   2.461   1_545  S
Zr974       O980   2.365       .  S
Zr974       O981   2.445   1_545  S
Zr974       O982   2.358   1_545  S
Zr974       O983   2.403       .  S
Zr975       O994   2.435       .  S
Zr975       O987   2.437       .  S
Zr975       O988   2.373       .  S
Zr975       O981   2.382       .  S
Zr975       O982   2.358       .  S
Zr976       O978   2.442       .  S
Zr976      O1000   2.442       .  S
Zr976      O1002   2.324       .  S
Zr976       O980   2.359       .  S
Zr976       O983   2.407       .  S
Zr977      O1003   2.424   1_565  S
Zr977      O1004   2.437   1_565  S
Zr977       O979   2.439       .  S
Zr977       O980   2.334   1_565  S
Zr977       O981   2.356       .  S
O978       H1015   0.989       .  S
O979       H1010   0.990       .  S
O979       H1024   0.989       .  S
O981       H1007   0.964       .  S
O982       Zr992   2.376       .  S
O983       Zr992   2.398   1_545  S
O983       H1008   0.965       .  S
C984       C1338   1.510       .  S
C985       C2290   1.483       .  S
C986       C2136   1.517       .  S
O987       H1023   0.990       .  S
O988        C990   1.264       .  A
O989        C990   1.293       .  A
C990       C1254   1.503       .  S
O991       Zr992   2.436       .  S
O991       H1020   0.990       .  S
Zr992       O995   2.442       .  S
Zr992       O996   2.439       .  S
Zr992       O997   2.343       .  S
O993        C998   1.301       .  A
O994       H1011   0.986       .  S
O994       H1026   0.988       .  S
O995       H1012   0.989       .  S
O996       H1016   0.990       .  S
O996       H1025   0.989       .  S
O997        C998   1.256       .  A
C998       C1184   1.494       .  S
O999       H1018   0.990       .  S
O999       H1022   0.990       .  S
O1000      H1014   0.990       .  S
O1000      H1021   0.990       .  S
O1001      C1005   1.310       .  A
O1002      C1005   1.252       .  A
O1003      H1013   0.990       .  S
O1004      H1017   0.990       .  S
C1005      C1111   1.499       .  S
Zr1028     O1029   2.435       .  S
Zr1028     O1030   2.522       .  S
Zr1028     O1031   2.583       .  S
Zr1028     O1034   2.581       .  S
Zr1028     O1036   2.427       .  S
Zr1028     O1037   2.451       .  S
Zr1028     O1038   2.445   1_455  S
Zr1028     O1039   2.360   1_455  S
O1029      H1085   0.990       .  S
O1029      H1093   0.990       .  S
O1030      C1050   1.281       .  A
O1031      C1052   1.301       .  A
O1032     Zr1042   2.359       .  S
O1032      C1051   1.258       .  A
O1033     Zr1041   2.367   1_455  S
O1033      C1052   1.258       .  A
O1034      C1051   1.309   1_455  A
O1035     Zr1043   2.331       .  S
O1035      C1050   1.252       .  A
O1036     Zr1041   2.359   1_455  S
O1036     Zr1043   2.411       .  S
O1037     Zr1042   2.414   1_455  S
O1037     Zr1043   2.409       .  S
O1037      H1072   0.965       .  S
O1038     Zr1041   2.389       .  S
O1038     Zr1058   2.357       .  S
O1038      H1075   0.948       .  S
O1039     Zr1042   2.334       .  S
O1039     Zr1058   2.299       .  S
Zr1040     O1065   2.434       .  S
Zr1040     O1059   2.507       .  S
Zr1040     O1067   2.560       .  S
Zr1040     O1055   2.505       .  S
Zr1040     O1046   2.397       .  S
Zr1040     O1047   2.407       .  S
Zr1040     O1048   2.375       .  S
Zr1040     O1049   2.408       .  S
Zr1041     O1060   2.436       .  S
Zr1041     O1053   2.436   1_655  S
Zr1041     O1054   2.332       .  S
Zr1041     O1047   2.383       .  S
Zr1041     O1048   2.328       .  S
Zr1042     O1044   2.441       .  S
Zr1042     O1066   2.449   1_655  S
Zr1042     O1068   2.354       .  S
Zr1042     O1046   2.393       .  S
Zr1042     O1049   2.405       .  S
Zr1043     O1069   2.440       .  S
Zr1043     O1070   2.459       .  S
Zr1043     O1045   2.455       .  S
Zr1043     O1046   2.332   1_455  S
Zr1043     O1047   2.333   1_455  S
O1044      H1081   0.987       .  S
O1045      H1076   0.988       .  S
O1045      H1090   0.989       .  S
O1047      H1073   0.956   1_655  S
O1048     Zr1058   2.385       .  S
O1049     Zr1058   2.387       .  S
O1049      H1074   0.965       .  S
C1050      C1097   1.499       .  S
C1051      C1167   1.486       .  S
C1052      C1142   1.546   1_455  S
O1053      H1089   0.991       .  S
O1054      C1056   1.262       .  A
O1055      C1056   1.304       .  A
C1056      C1310   1.452       .  S
O1057     Zr1058   2.439       .  S
O1057      H1086   0.990       .  S
Zr1058     O1061   2.430       .  S
Zr1058     O1062   2.448       .  S
Zr1058     O1063   2.343       .  S
O1059      C1064   1.305       .  A
O1060      H1077   0.988       .  S
O1060      H1092   0.987       .  S
O1061      H1078   0.990       .  S
O1062      H1082   0.987       .  S
O1062      H1091   0.990       .  S
O1063      C1064   1.257       .  A
C1064      C1632   1.479       .  S
O1065      H1084   0.990       .  S
O1065      H1088   0.990       .  S
O1066      H1080   0.987       .  S
O1066      H1087   0.986       .  S
O1067      C1071   1.300       .  A
O1068      C1071   1.248       .  A
O1069      H1079   0.988       .  S
O1070      H1083   0.991       .  S
C1071      C1265   1.521       .  S
C1094      C1100   1.587       .  S
C1094      C1114   1.621       .  S
C1094      C1128   1.607       .  S
C1094      C1394   1.676       .  S
C1095      C1324   1.680       .  S
C1095      C1646   1.687       .  S
C1095      C2542   1.658       .  S
C1095      C2875   1.678       .  S
C1096      C1758   1.699       .  S
C1096      C2052   1.690       .  S
C1096      C2581   1.647       .  S
C1096      C2822   1.695       .  S
C1097      C1098   1.406       .  A
C1097      C1102   1.430       .  A
C1098      C1099   1.417       .  A
C1098      C1103   1.450       .  S
C1099      C1100   1.427       .  A
C1099      C1106   1.445       .  S
C1100      C1101   1.430       .  A
C1101      C1102   1.412       .  A
C1101      C1104   1.461       .  S
C1102      C1105   1.461       .  S
C1103      N1110   1.157       .  T
C1104      N1109   1.158       .  T
C1105      N1107   1.157       .  T
C1106      N1108   1.156       .  T
C1111      C1112   1.395       .  A
C1111      C1116   1.458       .  A
C1112      C1113   1.377       .  A
C1112      C1117   1.448       .  S
C1113      C1114   1.421       .  A
C1113      C1120   1.463       .  S
C1114      C1115   1.428       .  A
C1115      C1116   1.446       .  A
C1115      C1118   1.448       .  S
C1116      C1119   1.448       .  S
C1117      N1124   1.157       .  T
C1118      N1123   1.158       .  T
C1119      N1121   1.157       .  T
C1120      N1122   1.157       .  T
C1125      C1126   1.434       .  A
C1125      C1130   1.382       .  A
C1126      C1127   1.423       .  A
C1126      C1131   1.450       .  S
C1127      C1128   1.427       .  A
C1127      C1134   1.445       .  S
C1128      C1129   1.477       .  A
C1129      C1130   1.381       .  A
C1129      C1132   1.453       .  S
C1130      C1133   1.458       .  S
C1131      N1138   1.157       .  T
C1132      N1137   1.159       .  T
C1133      N1135   1.158       .  T
C1134      N1136   1.157       .  T
C1139      C1140   1.420       .  A
C1139      C1144   1.414       .  A
C1140      C1141   1.430   1_655  A
C1140      C1145   1.443       .  S
C1141      C1142   1.434   1_455  A
C1141      C1148   1.449       .  S
C1142      C1143   1.432       .  A
C1143      C1144   1.427       .  A
C1143      C1146   1.443       .  S
C1144      C1147   1.437       .  S
C1145      N1152   1.157       .  T
C1146      N1151   1.156       .  T
C1147      N1149   1.155       .  T
C1148      N1150   1.158       .  T
C1153      C1154   1.468   1_656  A
C1153      C1158   1.435   1_655  A
C1154      C1155   1.427       .  A
C1154      C1159   1.424   1_455  S
C1155      C1156   1.373       .  A
C1155      C1162   1.461       .  S
C1156      C1157   1.432   1_554  A
C1157      C1158   1.426       .  A
C1157      C1160   1.452       .  S
C1158      C1161   1.454       .  S
C1159      N1166   1.155       .  T
C1160      N1165   1.156       .  T
C1161      N1163   1.158       .  T
C1162      N1164   1.158       .  T
C1167      C1168   1.423       .  A
C1167      C1172   1.404   1_655  A
C1168      C1169   1.412       .  A
C1168      C1173   1.445       .  S
C1169      C1170   1.398   1_545  A
C1169      C1176   1.445   1_545  S
C1170      C1171   1.451   1_565  A
C1171      C1172   1.415   1_655  A
C1171      C1174   1.450   1_645  S
C1172      C1175   1.454       .  S
C1173      N1180   1.156       .  T
C1174      N1179   1.158       .  T
C1175      N1177   1.157       .  T
C1176      N1178   1.157       .  T
C1181      C1182   1.460       .  A
C1181      C1186   1.422       .  A
C1182      C1183   1.379       .  A
C1182      C1187   1.441   1_565  S
C1183      C1184   1.382       .  A
C1183      C1190   1.464   1_565  S
C1184      C1185   1.434       .  A
C1185      C1186   1.435       .  A
C1185      C1188   1.448       .  S
C1186      C1189   1.445       .  S
C1187      N1194   1.157       .  T
C1188      N1193   1.157       .  T
C1189      N1191   1.157       .  T
C1190      N1192   1.158       .  T
C1195      C1196   1.418       .  A
C1195      C1200   1.420       .  A
C1196      C1197   1.408       .  A
C1196      C1201   1.449       .  S
C1197      C1198   1.413       .  A
C1197      C1204   1.445       .  S
C1198      C1199   1.407       .  A
C1199      C1200   1.415       .  A
C1199      C1202   1.445       .  S
C1200      C1203   1.445   1_556  S
C1201      N1208   1.157       .  T
C1202      N1207   1.158       .  T
C1203      N1205   1.157       .  T
C1204      N1206   1.158       .  T
C1209      C1210   1.435       .  A
C1209      C1214   1.423       .  A
C1210      C1211   1.423       .  A
C1210      C1215   1.447   1_565  S
C1211      C1212   1.419       .  A
C1211      C1218   1.446       .  S
C1212      C1213   1.431       .  A
C1213      C1214   1.417       .  A
C1213      C1216   1.449       .  S
C1214      C1217   1.444   1_655  S
C1215      N1222   1.156       .  T
C1216      N1221   1.158       .  T
C1217      N1219   1.156       .  T
C1218      N1220   1.158       .  T
C1223      C1224   1.439   1_565  A
C1223      C1228   1.446       .  A
C1224      C1225   1.438       .  A
C1224      C1229   1.443   1_545  S
C1225      C1226   1.415       .  A
C1225      C1232   1.447   1_556  S
C1226      C1227   1.425       .  A
C1227      C1228   1.434   1_545  A
C1227      C1230   1.456       .  S
C1228      C1231   1.445       .  S
C1229      N1236   1.157       .  T
C1230      N1235   1.157       .  T
C1231      N1233   1.159       .  T
C1232      N1234   1.157       .  T
C1237      C1238   1.440       .  A
C1237      C1242   1.401       .  A
C1238      C1239   1.414       .  A
C1238      C1243   1.448       .  S
C1239      C1240   1.385       .  A
C1239      C1246   1.446       .  S
C1240      C1241   1.431       .  A
C1241      C1242   1.409       .  A
C1241      C1244   1.443       .  S
C1242      C1245   1.448   1_556  S
C1243      N1250   1.157       .  T
C1244      N1249   1.157       .  T
C1245      N1247   1.157       .  T
C1246      N1248   1.157       .  T
C1251      C1252   1.449       .  A
C1251      C1256   1.446       .  A
C1252      C1253   1.378       .  A
C1252      C1257   1.446       .  S
C1253      C1254   1.394       .  A
C1253      C1260   1.458   1_565  S
C1254      C1255   1.432       .  A
C1255      C1256   1.436       .  A
C1255      C1258   1.451       .  S
C1256      C1259   1.452       .  S
C1257      N1264   1.159   1_554  T
C1258      N1263   1.157       .  T
C1259      N1261   1.159       .  T
C1260      N1262   1.158       .  T
C1265      C1266   1.431       .  A
C1265      C1270   1.425   1_655  A
C1266      C1267   1.419       .  A
C1266      C1271   1.452       .  S
C1267      C1268   1.430   1_655  A
C1267      C1274   1.452       .  S
C1268      C1269   1.412       .  A
C1269      C1270   1.416       .  A
C1269      C1272   1.445       .  S
C1270      C1273   1.438       .  S
C1271      N1278   1.158       .  T
C1272      N1277   1.158       .  T
C1273      N1275   1.154       .  T
C1274      N1276   1.157       .  T
C1279      C1280   1.427       .  A
C1279      C1284   1.416   1_455  A
C1280      C1281   1.416       .  A
C1280      C1285   1.449       .  S
C1281      C1282   1.401       .  A
C1281      C1288   1.444       .  S
C1282      C1283   1.444   1_455  A
C1283      C1284   1.408       .  A
C1283      C1286   1.457       .  S
C1284      C1287   1.456       .  S
C1285      N1292   1.157       .  T
C1286      N1291   1.158       .  T
C1287      N1289   1.158       .  T
C1288      N1290   1.157       .  T
C1293      C1294   1.427   1_455  A
C1293      C1298   1.428       .  A
C1294      C1295   1.418       .  A
C1294      C1299   1.444       .  S
C1295      C1296   1.423   1_655  A
C1295      C1302   1.447       .  S
C1296      C1297   1.421       .  A
C1297      C1298   1.427       .  A
C1297      C1300   1.442       .  S
C1298      C1301   1.450       .  S
C1299      N1306   1.155       .  T
C1300      N1305   1.157       .  T
C1301      N1303   1.157       .  T
C1302      N1304   1.158       .  T
C1307      C1308   1.433       .  A
C1307      C1312   1.459   1_455  A
C1308      C1309   1.420       .  A
C1308      C1313   1.451       .  S
C1309      C1310   1.416   1_455  A
C1309      C1316   1.442       .  S
C1310      C1311   1.360       .  A
C1311      C1312   1.384       .  A
C1311      C1314   1.466       .  S
C1312      C1315   1.431       .  S
C1313      N1320   1.158       .  T
C1314      N1319   1.158       .  T
C1315      N1317   1.158       .  T
C1316      N1318   1.153       .  T
C1321      C1322   1.451       .  A
C1321      C1326   1.460       .  A
C1322      C1323   1.435       .  A
C1322      C1327   1.444       .  S
C1323      C1324   1.429       .  A
C1323      C1330   1.437       .  S
C1324      C1325   1.447       .  A
C1325      C1326   1.457       .  A
C1325      C1328   1.453       .  S
C1326      C1329   1.449       .  S
C1327      N1334   1.158       .  T
C1328      N1333   1.157       .  T
C1329      N1331   1.158       .  T
C1330      N1332   1.158       .  T
C1335      C1336   1.410       .  A
C1335      C1340   1.438   1_545  A
C1336      C1337   1.419       .  A
C1336      C1341   1.443       .  S
C1337      C1338   1.427   1_545  A
C1337      C1344   1.445       .  S
C1338      C1339   1.421       .  A
C1339      C1340   1.417       .  A
C1339      C1342   1.453       .  S
C1340      C1343   1.453       .  S
C1341      N1348   1.157       .  T
C1342      N1347   1.157       .  T
C1343      N1345   1.157       .  T
C1344      N1346   1.156       .  T
C1349      C1350   1.430       .  A
C1349      C1354   1.422   1_545  A
C1350      C1351   1.418       .  A
C1350      C1355   1.443       .  S
C1351      C1352   1.404       .  A
C1351      C1358   1.443       .  S
C1352      C1353   1.434   1_545  A
C1353      C1354   1.404       .  A
C1353      C1356   1.454       .  S
C1354      C1357   1.453       .  S
C1355      N1362   1.157       .  T
C1356      N1361   1.158       .  T
C1357      N1359   1.157       .  T
C1358      N1360   1.158       .  T
C1363      C1364   1.456       .  A
C1363      C1368   1.397       .  A
C1364      C1365   1.424       .  A
C1364      C1369   1.454       .  S
C1365      C1366   1.412       .  A
C1365      C1372   1.451       .  S
C1366      C1367   1.428       .  A
C1367      C1368   1.405       .  A
C1367      C1370   1.442       .  S
C1368      C1371   1.441       .  S
C1369      N1376   1.158       .  T
C1370      N1375   1.154       .  T
C1371      N1373   1.156       .  T
C1372      N1374   1.158       .  T
C1377      C1378   1.449       .  A
C1377      C1382   1.460       .  A
C1378      C1379   1.441       .  A
C1378      C1383   1.436       .  S
C1379      C1380   1.439       .  A
C1379      C1386   1.442       .  S
C1380      C1381   1.449       .  A
C1381      C1382   1.459       .  A
C1381      C1384   1.446       .  S
C1382      C1385   1.450       .  S
C1383      N1390   1.158       .  T
C1384      N1389   1.158       .  T
C1385      N1387   1.156       .  T
C1386      N1388   1.158       .  T
C1391      C1392   1.446       .  A
C1391      C1396   1.448       .  A
C1392      C1393   1.447       .  A
C1392      C1397   1.429       .  S
C1393      C1394   1.426       .  A
C1393      C1400   1.448       .  S
C1394      C1395   1.441       .  A
C1395      C1396   1.449       .  A
C1395      C1398   1.447       .  S
C1396      C1399   1.453       .  S
C1397      N1404   1.152       .  T
C1398      N1403   1.158       .  T
C1399      N1401   1.158       .  T
C1400      N1402   1.157       .  T
C1405      C1406   1.435       .  A
C1405      C1410   1.464       .  A
C1406      C1407   1.450       .  A
C1406      C1411   1.440       .  S
C1407      C1408   1.452       .  A
C1407      C1414   1.439       .  S
C1408      C1409   1.450       .  A
C1409      C1410   1.466       .  A
C1409      C1412   1.455       .  S
C1410      C1413   1.445       .  S
C1411      N1418   1.158       .  T
C1412      N1417   1.158       .  T
C1413      N1415   1.158       .  T
C1414      N1416   1.157       .  T
C1419      C1420   1.435       .  A
C1419      C1424   1.372       .  A
C1420      C1421   1.434       .  A
C1420      C1425   1.449       .  S
C1421      C1422   1.422       .  A
C1421      C1428   1.441       .  S
C1422      C1423   1.468       .  A
C1423      C1424   1.382       .  A
C1423      C1426   1.442       .  S
C1424      C1427   1.458       .  S
C1425      N1432   1.157       .  T
C1426      N1431   1.159       .  T
C1427      N1429   1.157       .  T
C1428      N1430   1.157       .  T
C1433      C1434   1.439       .  A
C1433      C1438   1.399       .  A
C1434      C1435   1.424       .  A
C1434      C1439   1.458       .  S
C1435      C1436   1.426       .  A
C1435      C1442   1.441       .  S
C1436      C1437   1.438       .  A
C1437      C1438   1.427       .  A
C1437      C1440   1.446       .  S
C1438      C1441   1.445       .  S
C1439      N1446   1.158       .  T
C1440      N1445   1.157       .  T
C1441      N1443   1.157       .  T
C1442      N1444   1.155       .  T
C1447      C1448   1.449       .  A
C1447      C1452   1.455       .  A
C1448      C1449   1.469       .  A
C1448      C1453   1.446       .  S
C1449      C1450   1.458       .  A
C1449      C1456   1.459       .  S
C1450      C1451   1.457       .  A
C1451      C1452   1.470       .  A
C1451      C1454   1.449       .  S
C1452      C1455   1.454       .  S
C1453      N1460   1.158       .  T
C1454      N1459   1.158       .  T
C1455      N1457   1.159       .  T
C1456      N1458   1.158       .  T
C1461      C1462   1.422       .  A
C1461      C1466   1.460   1_655  A
C1462      C1463   1.434       .  A
C1462      C1467   1.443       .  S
C1463      C1464   1.438       .  A
C1463      C1470   1.448       .  S
C1464      C1465   1.373   1_655  A
C1465      C1466   1.372       .  A
C1465      C1468   1.458       .  S
C1466      C1469   1.440       .  S
C1467      N1474   1.156       .  T
C1468      N1473   1.158       .  T
C1469      N1471   1.158       .  T
C1470      N1472   1.157       .  T
C1475      C1476   1.391       .  A
C1475      C1480   1.455       .  A
C1476      C1477   1.403       .  A
C1476      C1481   1.439       .  S
C1477      C1478   1.433       .  A
C1477      C1484   1.445       .  S
C1478      C1479   1.397       .  A
C1479      C1480   1.402       .  A
C1479      C1482   1.445       .  S
C1480      C1483   1.459       .  S
C1481      N1488   1.155       .  T
C1482      N1487   1.154       .  T
C1483      N1485   1.158       .  T
C1484      N1486   1.155       .  T
C1489      C1490   1.448       .  A
C1489      C1494   1.458       .  A
C1490      C1491   1.459       .  A
C1490      C1495   1.454       .  S
C1491      C1492   1.441       .  A
C1491      C1498   1.441       .  S
C1492      C1493   1.442       .  A
C1493      C1494   1.459       .  A
C1493      C1496   1.454       .  S
C1494      C1497   1.444       .  S
C1495      N1502   1.157       .  T
C1496      N1501   1.159       .  T
C1497      N1499   1.158       .  T
C1498      N1500   1.156   1_655  T
C1503      C1504   1.456       .  A
C1503      C1508   1.447       .  A
C1504      C1505   1.467       .  A
C1504      C1509   1.449       .  S
C1505      C1506   1.449       .  A
C1505      C1512   1.452       .  S
C1506      C1507   1.456       .  A
C1507      C1508   1.459       .  A
C1507      C1510   1.447       .  S
C1508      C1511   1.459       .  S
C1509      N1516   1.157       .  T
C1510      N1515   1.159   1_655  T
C1511      N1513   1.158       .  T
C1512      N1514   1.158       .  T
C1517      C1518   1.451       .  A
C1517      C1522   1.435       .  A
C1518      C1519   1.479       .  A
C1518      C1523   1.445       .  S
C1519      C1520   1.462       .  A
C1519      C1526   1.449       .  S
C1520      C1521   1.480       .  A
C1521      C1522   1.464       .  A
C1521      C1524   1.446       .  S
C1522      C1525   1.460       .  S
C1523      N1530   1.157       .  T
C1524      N1529   1.159       .  T
C1525      N1527   1.158       .  T
C1526      N1528   1.159   1_565  T
C1531      C1532   1.447       .  A
C1531      C1536   1.456       .  A
C1532      C1533   1.455       .  A
C1532      C1537   1.459       .  S
C1533      C1534   1.461       .  A
C1533      C1540   1.449       .  S
C1534      C1535   1.443       .  A
C1535      C1536   1.466       .  A
C1535      C1538   1.453       .  S
C1536      C1539   1.441       .  S
C1537      N1544   1.158       .  T
C1538      N1543   1.158       .  T
C1539      N1541   1.158       .  T
C1540      N1542   1.158       .  T
C1545      C1546   1.440       .  A
C1545      C1550   1.416       .  A
C1546      C1547   1.423       .  A
C1546      C1551   1.452       .  S
C1547      C1548   1.411       .  A
C1547      C1554   1.445       .  S
C1548      C1549   1.447       .  A
C1549      C1550   1.436       .  A
C1549      C1552   1.449       .  S
C1550      C1553   1.447       .  S
C1551      N1558   1.157       .  T
C1552      N1557   1.157       .  T
C1553      N1555   1.157       .  T
C1554      N1556   1.158       .  T
C1559      C1560   1.445       .  A
C1559      C1564   1.416       .  A
C1560      C1561   1.441   1_545  A
C1560      C1565   1.450       .  S
C1561      C1562   1.419       .  A
C1561      C1568   1.442       .  S
C1562      C1563   1.450   1_565  A
C1563      C1564   1.433       .  A
C1563      C1566   1.451       .  S
C1564      C1567   1.443       .  S
C1565      N1572   1.157       .  T
C1566      N1571   1.158       .  T
C1567      N1569   1.156       .  T
C1568      N1570   1.158       .  T
C1573      C1574   1.430       .  A
C1573      C1578   1.371       .  A
C1574      C1575   1.422       .  A
C1574      C1579   1.451       .  S
C1575      C1576   1.419       .  A
C1575      C1582   1.446       .  S
C1576      C1577   1.470       .  A
C1577      C1578   1.389       .  A
C1577      C1580   1.442       .  S
C1578      C1581   1.468       .  S
C1579      N1586   1.157       .  T
C1580      N1585   1.159       .  T
C1581      N1583   1.157       .  T
C1582      N1584   1.158       .  T
C1587      C1588   1.423       .  A
C1587      C1592   1.436       .  A
C1588      C1589   1.426       .  A
C1588      C1593   1.444       .  S
C1589      C1590   1.421       .  A
C1589      C1596   1.440       .  S
C1590      C1591   1.446       .  A
C1591      C1592   1.438       .  A
C1591      C1594   1.451       .  S
C1592      C1595   1.453       .  S
C1593      N1600   1.158       .  T
C1594      N1599   1.157       .  T
C1595      N1597   1.157       .  T
C1596      N1598   1.155       .  T
C1601      C1602   1.366       .  A
C1601      C1606   1.438       .  A
C1602      C1603   1.402       .  A
C1602      C1607   1.458   1_565  S
C1603      C1604   1.482       .  A
C1603      C1610   1.447       .  S
C1604      C1605   1.410       .  A
C1605      C1606   1.433       .  A
C1605      C1608   1.445       .  S
C1606      C1609   1.445       .  S
C1607      N1614   1.156       .  T
C1608      N1613   1.156       .  T
C1609      N1611   1.156       .  T
C1610      N1612   1.158       .  T
C1615      C1616   1.406       .  A
C1615      C1620   1.430       .  A
C1616      C1617   1.413       .  A
C1616      C1621   1.449       .  S
C1617      C1618   1.443       .  A
C1617      C1624   1.453       .  S
C1618      C1619   1.398       .  A
C1619      C1620   1.409       .  A
C1619      C1622   1.449       .  S
C1620      C1623   1.448       .  S
C1621      N1628   1.156       .  T
C1622      N1627   1.157       .  T
C1623      N1625   1.157       .  T
C1624      N1626   1.158       .  T
C1629      C1630   1.469       .  A
C1629      C1634   1.410       .  A
C1630      C1631   1.386       .  A
C1630      C1635   1.449       .  S
C1631      C1632   1.375       .  A
C1631      C1638   1.469       .  S
C1632      C1633   1.427       .  A
C1633      C1634   1.418       .  A
C1633      C1636   1.439       .  S
C1634      C1637   1.449       .  S
C1635      N1642   1.157       .  T
C1636      N1641   1.154       .  T
C1637      N1639   1.157       .  T
C1638      N1640   1.157       .  T
C1643      C1644   1.439       .  A
C1643      C1648   1.448       .  A
C1644      C1645   1.457       .  A
C1644      C1649   1.452       .  S
C1645      C1646   1.465       .  A
C1645      C1652   1.450       .  S
C1646      C1647   1.432       .  A
C1647      C1648   1.435       .  A
C1647      C1650   1.441       .  S
C1648      C1651   1.443       .  S
C1649      N1656   1.158       .  T
C1650      N1655   1.156       .  T
C1651      N1653   1.158       .  T
C1652      N1654   1.158       .  T
C1657      C1658   1.404       .  A
C1657      C1662   1.421       .  A
C1658      C1659   1.405       .  A
C1658      C1663   1.454       .  S
C1659      C1660   1.453       .  A
C1659      C1666   1.459       .  S
C1660      C1661   1.389       .  A
C1661      C1662   1.401       .  A
C1661      C1664   1.448       .  S
C1662      C1665   1.440       .  S
C1663      N1670   1.157       .  T
C1664      N1669   1.157       .  T
C1665      N1667   1.156       .  T
C1666      N1668   1.158       .  T
C1671      C1672   1.435       .  A
C1671      C1676   1.418       .  A
C1672      C1673   1.425       .  A
C1672      C1677   1.449       .  S
C1673      C1674   1.406       .  A
C1673      C1680   1.445       .  S
C1674      C1675   1.443       .  A
C1675      C1676   1.412       .  A
C1675      C1678   1.453       .  S
C1676      C1679   1.452       .  S
C1677      N1684   1.158       .  T
C1678      N1683   1.158       .  T
C1679      N1681   1.158       .  T
C1680      N1682   1.157       .  T
C1685      C1686   1.421       .  A
C1685      C1690   1.426       .  A
C1686      C1687   1.428       .  A
C1686      C1691   1.449       .  S
C1687      C1688   1.430       .  A
C1687      C1694   1.444       .  S
C1688      C1689   1.430       .  A
C1689      C1690   1.424       .  A
C1689      C1692   1.448       .  S
C1690      C1693   1.451       .  S
C1691      N1698   1.157       .  T
C1692      N1697   1.156       .  T
C1693      N1695   1.158       .  T
C1694      N1696   1.158       .  T
C1699      C1700   1.433       .  A
C1699      C1704   1.427       .  A
C1700      C1701   1.434       .  A
C1700      C1705   1.451       .  S
C1701      C1702   1.437       .  A
C1701      C1708   1.449       .  S
C1702      C1703   1.425       .  A
C1703      C1704   1.435       .  A
C1703      C1706   1.441       .  S
C1704      C1707   1.447       .  S
C1705      N1712   1.157       .  T
C1706      N1711   1.158       .  T
C1707      N1709   1.157       .  T
C1708      N1710   1.158       .  T
C1713      C1714   1.419       .  A
C1713      C1718   1.433       .  A
C1714      C1715   1.426       .  A
C1714      C1719   1.447       .  S
C1715      C1716   1.428       .  A
C1715      C1722   1.440       .  S
C1716      C1717   1.402       .  A
C1717      C1718   1.420       .  A
C1717      C1720   1.445       .  S
C1718      C1721   1.450       .  S
C1719      N1726   1.157       .  T
C1720      N1725   1.158       .  T
C1721      N1723   1.158       .  T
C1722      N1724   1.157       .  T
C1727      C1728   1.412       .  A
C1727      C1732   1.421       .  A
C1728      C1729   1.429       .  A
C1728      C1733   1.448       .  S
C1729      C1730   1.442       .  A
C1729      C1736   1.448       .  S
C1730      C1731   1.416       .  A
C1731      C1732   1.417       .  A
C1731      C1734   1.449       .  S
C1732      C1735   1.448       .  S
C1733      N1740   1.158       .  T
C1734      N1739   1.157       .  T
C1735      N1737   1.158       .  T
C1736      N1738   1.157       .  T
C1741      C1742   1.421       .  A
C1741      C1746   1.420       .  A
C1742      C1743   1.397       .  A
C1742      C1747   1.448       .  S
C1743      C1744   1.402       .  A
C1743      C1750   1.444       .  S
C1744      C1745   1.449       .  A
C1745      C1746   1.442       .  A
C1745      C1748   1.449       .  S
C1746      C1749   1.439       .  S
C1747      N1754   1.158       .  T
C1748      N1753   1.157       .  T
C1749      N1751   1.155       .  T
C1750      N1752   1.158       .  T
C1755      C1756   1.445       .  A
C1755      C1760   1.438       .  A
C1756      C1757   1.473       .  A
C1756      C1761   1.448       .  S
C1757      C1758   1.456       .  A
C1757      C1764   1.440       .  S
C1758      C1759   1.446       .  A
C1759      C1760   1.457       .  A
C1759      C1762   1.444       .  S
C1760      C1763   1.442       .  S
C1761      N1768   1.157       .  T
C1762      N1767   1.157       .  T
C1763      N1765   1.157       .  T
C1764      N1766   1.155       .  T
C1769      C1770   1.415       .  A
C1769      C1774   1.413       .  A
C1770      C1771   1.413       .  A
C1770      C1775   1.448       .  S
C1771      C1772   1.418       .  A
C1771      C1778   1.443       .  S
C1772      C1773   1.438       .  A
C1773      C1774   1.433       .  A
C1773      C1776   1.450       .  S
C1774      C1777   1.443       .  S
C1775      N1782   1.158       .  T
C1776      N1781   1.157       .  T
C1777      N1779   1.156       .  T
C1778      N1780   1.156       .  T
C1783      C1784   1.416   1_556  A
C1783      C1788   1.423       .  A
C1784      C1785   1.407       .  A
C1784      C1789   1.446       .  S
C1785      C1786   1.424   1_554  A
C1785      C1792   1.448       .  S
C1786      C1787   1.428       .  A
C1787      C1788   1.415       .  A
C1787      C1790   1.452       .  S
C1788      C1791   1.450       .  S
C1789      N1796   1.158       .  T
C1790      N1795   1.158       .  T
C1791      N1793   1.157       .  T
C1792      N1794   1.158       .  T
C1797      C1798   1.397       .  A
C1797      C1802   1.441       .  A
C1798      C1799   1.412       .  A
C1798      C1803   1.443       .  S
C1799      C1800   1.438       .  A
C1799      C1806   1.445       .  S
C1800      C1801   1.423       .  A
C1801      C1802   1.421       .  A
C1801      C1804   1.447       .  S
C1802      C1805   1.455       .  S
C1803      N1810   1.157       .  T
C1804      N1809   1.156       .  T
C1805      N1807   1.158       .  T
C1806      N1808   1.157       .  T
C1811      C1812   1.414       .  A
C1811      C1816   1.469       .  A
C1812      C1813   1.436       .  A
C1812      C1817   1.448       .  S
C1813      C1814   1.442       .  A
C1813      C1820   1.447       .  S
C1814      C1815   1.386       .  A
C1815      C1816   1.412       .  A
C1815      C1818   1.463   1_565  S
C1816      C1819   1.443       .  S
C1817      N1824   1.157       .  T
C1818      N1823   1.158       .  T
C1819      N1821   1.159   1_565  T
C1820      N1822   1.157       .  T
C1825      C1826   1.452       .  A
C1825      C1830   1.444       .  A
C1826      C1827   1.461       .  A
C1826      C1831   1.444       .  S
C1827      C1828   1.434       .  A
C1827      C1834   1.450   1_556  S
C1828      C1829   1.433       .  A
C1829      C1830   1.441       .  A
C1829      C1832   1.442       .  S
C1830      C1833   1.456       .  S
C1831      N1838   1.157       .  T
C1832      N1837   1.157       .  T
C1833      N1835   1.157       .  T
C1834      N1836   1.158       .  T
C1839      C1840   1.440       .  A
C1839      C1844   1.433       .  A
C1840      C1841   1.449       .  A
C1840      C1845   1.448       .  S
C1841      C1842   1.438       .  A
C1841      C1848   1.444       .  S
C1842      C1843   1.452       .  A
C1843      C1844   1.439       .  A
C1843      C1846   1.451       .  S
C1844      C1847   1.451       .  S
C1845      N1852   1.157       .  T
C1846      N1851   1.158       .  T
C1847      N1849   1.158       .  T
C1848      N1850   1.156       .  T
C1853      C1854   1.437       .  A
C1853      C1858   1.431       .  A
C1854      C1855   1.434       .  A
C1854      C1859   1.459       .  S
C1855      C1856   1.464       .  A
C1855      C1862   1.454       .  S
C1856      C1857   1.441       .  A
C1857      C1858   1.436       .  A
C1857      C1860   1.443       .  S
C1858      C1861   1.437       .  S
C1859      N1866   1.158       .  T
C1860      N1865   1.158       .  T
C1861      N1863   1.156       .  T
C1862      N1864   1.159       .  T
C1867      C1868   1.416       .  A
C1867      C1872   1.427       .  A
C1868      C1869   1.416       .  A
C1868      C1873   1.446       .  S
C1869      C1870   1.441       .  A
C1869      C1876   1.455       .  S
C1870      C1871   1.390       .  A
C1871      C1872   1.398       .  A
C1871      C1874   1.445       .  S
C1872      C1875   1.439       .  S
C1873      N1880   1.157       .  T
C1874      N1879   1.157       .  T
C1875      N1877   1.155       .  T
C1876      N1878   1.157       .  T
C1881      C1882   1.411       .  A
C1881      C1886   1.438       .  A
C1882      C1883   1.421       .  A
C1882      C1887   1.454       .  S
C1883      C1884   1.454       .  A
C1883      C1890   1.448       .  S
C1884      C1885   1.388       .  A
C1885      C1886   1.418       .  A
C1885      C1888   1.445       .  S
C1886      C1889   1.435       .  S
C1887      N1894   1.157       .  T
C1888      N1893   1.157       .  T
C1889      N1891   1.156       .  T
C1890      N1892   1.158       .  T
C1895      C1896   1.424       .  A
C1895      C1900   1.415       .  A
C1896      C1897   1.414       .  A
C1896      C1901   1.450       .  S
C1897      C1898   1.403       .  A
C1897      C1904   1.447       .  S
C1898      C1899   1.440       .  A
C1899      C1900   1.411       .  A
C1899      C1902   1.453       .  S
C1900      C1903   1.454       .  S
C1901      N1908   1.158       .  T
C1902      N1907   1.158       .  T
C1903      N1905   1.157       .  T
C1904      N1906   1.157       .  T
C1909      C1910   1.447       .  A
C1909      C1914   1.380       .  A
C1910      C1911   1.438       .  A
C1910      C1915   1.442       .  S
C1911      C1912   1.411       .  A
C1911      C1918   1.447       .  S
C1912      C1913   1.469       .  A
C1913      C1914   1.404       .  A
C1913      C1916   1.438       .  S
C1914      C1917   1.461       .  S
C1915      N1922   1.157       .  T
C1916      N1921   1.158       .  T
C1917      N1919   1.157       .  T
C1918      N1920   1.157       .  T
C1923      C1924   1.435       .  A
C1923      C1928   1.437       .  A
C1924      C1925   1.438       .  A
C1924      C1929   1.444       .  S
C1925      C1926   1.440       .  A
C1925      C1932   1.445       .  S
C1926      C1927   1.459       .  A
C1927      C1928   1.439       .  A
C1927      C1930   1.453       .  S
C1928      C1931   1.452       .  S
C1929      N1936   1.158       .  T
C1930      N1935   1.159       .  T
C1931      N1933   1.155       .  T
C1932      N1934   1.158       .  T
C1937      C1938   1.422       .  A
C1937      C1942   1.429   1_655  A
C1938      C1939   1.419       .  A
C1938      C1943   1.451       .  S
C1939      C1940   1.437       .  A
C1939      C1946   1.448       .  S
C1940      C1941   1.423   1_655  A
C1941      C1942   1.430       .  A
C1941      C1944   1.444       .  S
C1942      C1945   1.450       .  S
C1943      N1950   1.157       .  T
C1944      N1949   1.158       .  T
C1945      N1947   1.158       .  T
C1946      N1948   1.158       .  T
C1951      C1952   1.420       .  A
C1951      C1956   1.412       .  A
C1952      C1953   1.411       .  A
C1952      C1957   1.452       .  S
C1953      C1954   1.418       .  A
C1953      C1960   1.446       .  S
C1954      C1955   1.435       .  A
C1955      C1956   1.405       .  A
C1955      C1958   1.453       .  S
C1956      C1959   1.453       .  S
C1957      N1964   1.157       .  T
C1958      N1963   1.157       .  T
C1959      N1961   1.157       .  T
C1960      N1962   1.158       .  T
C1965      C1966   1.379       .  A
C1965      C1970   1.433       .  A
C1966      C1967   1.403       .  A
C1966      C1971   1.465       .  S
C1967      C1968   1.471       .  A
C1967      C1974   1.443       .  S
C1968      C1969   1.417       .  A
C1969      C1970   1.428       .  A
C1969      C1972   1.445       .  S
C1970      C1973   1.448       .  S
C1971      N1978   1.157       .  T
C1972      N1977   1.156       .  T
C1973      N1975   1.156       .  T
C1974      N1976   1.159       .  T
C1979      C1980   1.375       .  A
C1979      C1984   1.430       .  A
C1980      C1981   1.397       .  A
C1980      C1985   1.466       .  S
C1981      C1982   1.473       .  A
C1981      C1988   1.446       .  S
C1982      C1983   1.415       .  A
C1983      C1984   1.427       .  A
C1983      C1986   1.446       .  S
C1984      C1987   1.447       .  S
C1985      N1992   1.157       .  T
C1986      N1991   1.157       .  T
C1987      N1989   1.156       .  T
C1988      N1990   1.158       .  T
C1993      C1994   1.420       .  A
C1993      C1998   1.423       .  A
C1994      C1995   1.420       .  A
C1994      C1999   1.447       .  S
C1995      C1996   1.422       .  A
C1995      C2002   1.444       .  S
C1996      C1997   1.430       .  A
C1997      C1998   1.409       .  A
C1997      C2000   1.450       .  S
C1998      C2001   1.454       .  S
C1999      N2006   1.156       .  T
C2000      N2005   1.158       .  T
C2001      N2003   1.158       .  T
C2002      N2004   1.158       .  T
C2007      C2008   1.429       .  A
C2007      C2012   1.410       .  A
C2008      C2009   1.410       .  A
C2008      C2013   1.447       .  S
C2009      C2010   1.390       .  A
C2009      C2016   1.445       .  S
C2010      C2011   1.442       .  A
C2011      C2012   1.407       .  A
C2011      C2014   1.454       .  S
C2012      C2015   1.454       .  S
C2013      N2020   1.157       .  T
C2014      N2019   1.158       .  T
C2015      N2017   1.158       .  T
C2016      N2018   1.157       .  T
C2021      C2022   1.449       .  A
C2021      C2026   1.393       .  A
C2022      C2023   1.422       .  A
C2022      C2027   1.458       .  S
C2023      C2024   1.424       .  A
C2023      C2030   1.453       .  S
C2024      C2025   1.428       .  A
C2025      C2026   1.413       .  A
C2025      C2028   1.437       .  S
C2026      C2029   1.444       .  S
C2027      N2034   1.158       .  T
C2028      N2033   1.155       .  T
C2029      N2031   1.157       .  T
C2030      N2032   1.158       .  T
C2035      C2036   1.415       .  A
C2035      C2040   1.420       .  A
C2036      C2037   1.443       .  A
C2036      C2041   1.440       .  S
C2037      C2038   1.443       .  A
C2037      C2044   1.440       .  S
C2038      C2039   1.399       .  A
C2039      C2040   1.368       .  A
C2039      C2042   1.461       .  S
C2040      C2043   1.450       .  S
C2041      N2048   1.157       .  T
C2042      N2047   1.158       .  T
C2043      N2045   1.156       .  T
C2044      N2046   1.156       .  T
C2049      C2050   1.455       .  A
C2049      C2054   1.436       .  A
C2050      C2051   1.459       .  A
C2050      C2055   1.446       .  S
C2051      C2052   1.435       .  A
C2051      C2058   1.455       .  S
C2052      C2053   1.463       .  A
C2053      C2054   1.464       .  A
C2053      C2056   1.447       .  S
C2054      C2057   1.454       .  S
C2055      N2062   1.158       .  T
C2056      N2061   1.157       .  T
C2057      N2059   1.158       .  T
C2058      N2060   1.157       .  T
C2063      C2064   1.437       .  A
C2063      C2068   1.410       .  A
C2064      C2065   1.406       .  A
C2064      C2069   1.455       .  S
C2065      C2066   1.405       .  A
C2065      C2072   1.451       .  S
C2066      C2067   1.433       .  A
C2067      C2068   1.415       .  A
C2067      C2070   1.451       .  S
C2068      C2071   1.448       .  S
C2069      N2076   1.158       .  T
C2070      N2075   1.157       .  T
C2071      N2073   1.157       .  T
C2072      N2074   1.158       .  T
C2077      C2078   1.460       .  A
C2077      C2082   1.445       .  A
C2078      C2079   1.399       .  A
C2078      C2083   1.443       .  S
C2079      C2080   1.400       .  A
C2079      C2086   1.459       .  S
C2080      C2081   1.431       .  A
C2081      C2082   1.440       .  A
C2081      C2084   1.450       .  S
C2082      C2085   1.450       .  S
C2083      N2090   1.157       .  T
C2084      N2089   1.157       .  T
C2085      N2087   1.157       .  T
C2086      N2088   1.157       .  T
C2091      C2092   1.445       .  A
C2091      C2096   1.439       .  A
C2092      C2093   1.470       .  A
C2092      C2097   1.448       .  S
C2093      C2094   1.454       .  A
C2093      C2100   1.449       .  S
C2094      C2095   1.442       .  A
C2095      C2096   1.451       .  A
C2095      C2098   1.441       .  S
C2096      C2099   1.454       .  S
C2097      N2104   1.158       .  T
C2098      N2103   1.156       .  T
C2099      N2101   1.158       .  T
C2100      N2102   1.158       .  T
C2105      C2106   1.370       .  A
C2105      C2110   1.435       .  A
C2106      C2107   1.397       .  A
C2106      C2111   1.462       .  S
C2107      C2108   1.475       .  A
C2107      C2114   1.443       .  S
C2108      C2109   1.410       .  A
C2109      C2110   1.417       .  A
C2109      C2112   1.444       .  S
C2110      C2113   1.450       .  S
C2111      N2118   1.156       .  T
C2112      N2117   1.156       .  T
C2113      N2115   1.157       .  T
C2114      N2116   1.159       .  T
C2119      C2120   1.407       .  A
C2119      C2124   1.444       .  A
C2120      C2121   1.427       .  A
C2120      C2125   1.444       .  S
C2121      C2122   1.437       .  A
C2121      C2128   1.448       .  S
C2122      C2123   1.420       .  A
C2123      C2124   1.422       .  A
C2123      C2126   1.449       .  S
C2124      C2127   1.454       .  S
C2125      N2132   1.158       .  T
C2126      N2131   1.158       .  T
C2127      N2129   1.157       .  T
C2128      N2130   1.157       .  T
C2133      C2134   1.442       .  A
C2133      C2138   1.399       .  A
C2134      C2135   1.417       .  A
C2134      C2139   1.452       .  S
C2135      C2136   1.419       .  A
C2135      C2142   1.453       .  S
C2136      C2137   1.439       .  A
C2137      C2138   1.418       .  A
C2137      C2140   1.438       .  S
C2138      C2141   1.444       .  S
C2139      N2146   1.158       .  T
C2140      N2145   1.155       .  T
C2141      N2143   1.158       .  T
C2142      N2144   1.157       .  T
C2147      C2148   1.452       .  A
C2147      C2152   1.456       .  A
C2148      C2149   1.439       .  A
C2148      C2153   1.441       .  S
C2149      C2150   1.418       .  A
C2149      C2156   1.438       .  S
C2150      C2151   1.456       .  A
C2151      C2152   1.468       .  A
C2151      C2154   1.445       .  S
C2152      C2155   1.449       .  S
C2153      N2160   1.158       .  T
C2154      N2159   1.156       .  T
C2155      N2157   1.159       .  T
C2156      N2158   1.156       .  T
C2161      C2162   1.413       .  A
C2161      C2166   1.414       .  A
C2162      C2163   1.441       .  A
C2162      C2167   1.444       .  S
C2163      C2164   1.446       .  A
C2163      C2170   1.448   1_554  S
C2164      C2165   1.401       .  A
C2165      C2166   1.409       .  A
C2165      C2168   1.449       .  S
C2166      C2169   1.448       .  S
C2167      N2174   1.157       .  T
C2168      N2173   1.158       .  T
C2169      N2171   1.158       .  T
C2170      N2172   1.157       .  T
C2175      C2176   1.402       .  A
C2175      C2180   1.443       .  A
C2176      C2177   1.407       .  A
C2176      C2181   1.449       .  S
C2177      C2178   1.422       .  A
C2177      C2184   1.450       .  S
C2178      C2179   1.416       .  A
C2179      C2180   1.432       .  A
C2179      C2182   1.451       .  S
C2180      C2183   1.446       .  S
C2181      N2188   1.158       .  T
C2182      N2187   1.158       .  T
C2183      N2185   1.156       .  T
C2184      N2186   1.158       .  T
C2189      C2190   1.449       .  A
C2189      C2194   1.445       .  A
C2190      C2191   1.458       .  A
C2190      C2195   1.437       .  S
C2191      C2192   1.432       .  A
C2191      C2198   1.444       .  S
C2192      C2193   1.453       .  A
C2193      C2194   1.461       .  A
C2193      C2196   1.444       .  S
C2194      C2197   1.446       .  S
C2195      N2202   1.156       .  T
C2196      N2201   1.157   1_554  T
C2197      N2199   1.157       .  T
C2198      N2200   1.158       .  T
C2203      C2204   1.432       .  A
C2203      C2208   1.418       .  A
C2204      C2205   1.443       .  A
C2204      C2209   1.450       .  S
C2205      C2206   1.444       .  A
C2205      C2212   1.449       .  S
C2206      C2207   1.417   1_554  A
C2207      C2208   1.420   1_556  A
C2207      C2210   1.445       .  S
C2208      C2211   1.445   1_554  S
C2209      N2216   1.158       .  T
C2210      N2215   1.158       .  T
C2211      N2213   1.157       .  T
C2212      N2214   1.157       .  T
C2217      C2218   1.391       .  A
C2217      C2222   1.450       .  A
C2218      C2219   1.413       .  A
C2218      C2223   1.447       .  S
C2219      C2220   1.432       .  A
C2219      C2226   1.442       .  S
C2220      C2221   1.409       .  A
C2221      C2222   1.405       .  A
C2221      C2224   1.454   1_554  S
C2222      C2225   1.458   1_554  S
C2223      N2230   1.158       .  T
C2224      N2229   1.157       .  T
C2225      N2227   1.158       .  T
C2226      N2228   1.156       .  T
C2231      C2232   1.409       .  A
C2231      C2236   1.474       .  A
C2232      C2233   1.438       .  A
C2232      C2237   1.446       .  S
C2233      C2234   1.448       .  A
C2233      C2240   1.448       .  S
C2234      C2235   1.376       .  A
C2235      C2236   1.412       .  A
C2235      C2238   1.461   1_455  S
C2236      C2239   1.435       .  S
C2237      N2244   1.156       .  T
C2238      N2243   1.157       .  T
C2239      N2241   1.153   1_456  T
C2240      N2242   1.157       .  T
C2245      C2246   1.448       .  A
C2245      C2250   1.449       .  A
C2246      C2247   1.464       .  A
C2246      C2251   1.447       .  S
C2247      C2248   1.457       .  A
C2247      C2254   1.445       .  S
C2248      C2249   1.456       .  A
C2249      C2250   1.453       .  A
C2249      C2252   1.451       .  S
C2250      C2253   1.449       .  S
C2251      N2258   1.158       .  T
C2252      N2257   1.158   1_455  T
C2253      N2255   1.158       .  T
C2254      N2256   1.159       .  T
C2259      C2260   1.436       .  A
C2259      C2264   1.447       .  A
C2260      C2261   1.447       .  A
C2260      C2265   1.446       .  S
C2261      C2262   1.452       .  A
C2261      C2268   1.434       .  S
C2262      C2263   1.460       .  A
C2263      C2264   1.449       .  A
C2263      C2266   1.447       .  S
C2264      C2267   1.450       .  S
C2265      N2272   1.158       .  T
C2266      N2271   1.158       .  T
C2267      N2269   1.158       .  T
C2268      N2270   1.157       .  T
C2273      C2274   1.450       .  A
C2273      C2278   1.402       .  A
C2274      C2275   1.399       .  A
C2274      C2279   1.455       .  S
C2275      C2276   1.399       .  A
C2275      C2282   1.452       .  S
C2276      C2277   1.424   1_545  A
C2277      C2278   1.400   1_565  A
C2277      C2280   1.445       .  S
C2278      C2281   1.446   1_545  S
C2279      N2286   1.157       .  T
C2280      N2285   1.156       .  T
C2281      N2283   1.158   1_565  T
C2282      N2284   1.157       .  T
C2287      C2288   1.410   1_565  A
C2287      C2292   1.472       .  A
C2288      C2289   1.424       .  A
C2288      C2293   1.446       .  S
C2289      C2290   1.436   1_545  A
C2289      C2296   1.447       .  S
C2290      C2291   1.371       .  A
C2291      C2292   1.390       .  A
C2291      C2294   1.463       .  S
C2292      C2295   1.447       .  S
C2293      N2300   1.156       .  T
C2294      N2299   1.157       .  T
C2295      N2297   1.157       .  T
C2296      N2298   1.156       .  T
C2301      C2302   1.417       .  A
C2301      C2306   1.455       .  A
C2302      C2303   1.427       .  A
C2302      C2307   1.442       .  S
C2303      C2304   1.420       .  A
C2303      C2310   1.446       .  S
C2304      C2305   1.417       .  A
C2305      C2306   1.420       .  A
C2305      C2308   1.458       .  S
C2306      C2309   1.455       .  S
C2307      N2314   1.158       .  T
C2308      N2313   1.157       .  T
C2309      N2311   1.158       .  T
C2310      N2312   1.157       .  T
C2315      C2316   1.473       .  A
C2315      C2320   1.454       .  A
C2316      C2317   1.439       .  A
C2316      C2321   1.456       .  S
C2317      C2318   1.430       .  A
C2317      C2324   1.459       .  S
C2318      C2319   1.431       .  A
C2319      C2320   1.454       .  A
C2319      C2322   1.453       .  S
C2320      C2323   1.443   1_545  S
C2321      N2328   1.160       .  T
C2322      N2327   1.157       .  T
C2323      N2325   1.159       .  T
C2324      N2326   1.158       .  T
C2329      C2330   1.441       .  A
C2329      C2334   1.450       .  A
C2330      C2331   1.423       .  A
C2330      C2335   1.452       .  S
C2331      C2332   1.432       .  A
C2331      C2338   1.455       .  S
C2332      C2333   1.381       .  A
C2333      C2334   1.383       .  A
C2333      C2336   1.455       .  S
C2334      C2337   1.438   1_556  S
C2335      N2342   1.158       .  T
C2336      N2341   1.157       .  T
C2337      N2339   1.158       .  T
C2338      N2340   1.158       .  T
C2343      C2344   1.428       .  A
C2343      C2348   1.399       .  A
C2344      C2345   1.435       .  A
C2344      C2349   1.444       .  S
C2345      C2346   1.429       .  A
C2345      C2352   1.448       .  S
C2346      C2347   1.430       .  A
C2347      C2348   1.419       .  A
C2347      C2350   1.424       .  S
C2348      C2351   1.445       .  S
C2349      N2356   1.157       .  T
C2350      N2355   1.150       .  T
C2351      N2353   1.158       .  T
C2352      N2354   1.157       .  T
C2357      C2358   1.421       .  A
C2357      C2362   1.399       .  A
C2358      C2359   1.416       .  A
C2358      C2363   1.439       .  S
C2359      C2360   1.421       .  A
C2359      C2366   1.450       .  S
C2360      C2361   1.427       .  A
C2361      C2362   1.407       .  A
C2361      C2364   1.435   1_655  S
C2362      C2365   1.446       .  S
C2363      N2370   1.156       .  T
C2364      N2369   1.153       .  T
C2365      N2367   1.158       .  T
C2366      N2368   1.157       .  T
C2371      C2372   1.410       .  A
C2371      C2376   1.469   1_655  A
C2372      C2373   1.415       .  A
C2372      C2377   1.451       .  S
C2373      C2374   1.428   1_655  A
C2373      C2380   1.440       .  S
C2374      C2375   1.387       .  A
C2375      C2376   1.419       .  A
C2375      C2378   1.463       .  S
C2376      C2379   1.438       .  S
C2377      N2384   1.158       .  T
C2378      N2383   1.157       .  T
C2379      N2381   1.159       .  T
C2380      N2382   1.155       .  T
C2385      C2386   1.427       .  A
C2385      C2390   1.440       .  A
C2386      C2387   1.416       .  A
C2386      C2391   1.439       .  S
C2387      C2388   1.408       .  A
C2387      C2394   1.447       .  S
C2388      C2389   1.423       .  A
C2389      C2390   1.431       .  A
C2389      C2392   1.457       .  S
C2390      C2393   1.442       .  S
C2391      N2398   1.157       .  T
C2392      N2397   1.157       .  T
C2393      N2395   1.158       .  T
C2394      N2396   1.157       .  T
C2399      C2400   1.452       .  A
C2399      C2404   1.456       .  A
C2400      C2401   1.461       .  A
C2400      C2405   1.452       .  S
C2401      C2402   1.443       .  A
C2401      C2408   1.443   1_556  S
C2402      C2403   1.440       .  A
C2403      C2404   1.447       .  A
C2403      C2406   1.454       .  S
C2404      C2407   1.446       .  S
C2405      N2412   1.157       .  T
C2406      N2411   1.158   1_655  T
C2407      N2409   1.157       .  T
C2408      N2410   1.157       .  T
C2413      C2414   1.456       .  A
C2413      C2418   1.445       .  A
C2414      C2415   1.463       .  A
C2414      C2419   1.443       .  S
C2415      C2416   1.441       .  A
C2415      C2422   1.459       .  S
C2416      C2417   1.441       .  A
C2417      C2418   1.461       .  A
C2417      C2420   1.440       .  S
C2418      C2421   1.455       .  S
C2419      N2426   1.158       .  T
C2420      N2425   1.155   1_556  T
C2421      N2423   1.158       .  T
C2422      N2424   1.158       .  T
C2427      C2428   1.445       .  A
C2427      C2432   1.440       .  A
C2428      C2429   1.455       .  A
C2428      C2433   1.442       .  S
C2429      C2430   1.443       .  A
C2429      C2436   1.447       .  S
C2430      C2431   1.450       .  A
C2431      C2432   1.457       .  A
C2431      C2434   1.436       .  S
C2432      C2435   1.459       .  S
C2433      N2440   1.157       .  T
C2434      N2439   1.155       .  T
C2435      N2437   1.157       .  T
C2436      N2438   1.158       .  T
C2441      C2442   1.442       .  A
C2441      C2446   1.456       .  A
C2442      C2443   1.460       .  A
C2442      C2447   1.446       .  S
C2443      C2444   1.455       .  A
C2443      C2450   1.448       .  S
C2444      C2445   1.441       .  A
C2445      C2446   1.454       .  A
C2445      C2448   1.447       .  S
C2446      C2449   1.446       .  S
C2447      N2454   1.158       .  T
C2448      N2453   1.158       .  T
C2449      N2451   1.154       .  T
C2450      N2452   1.158       .  T
C2455      C2456   1.422   1_556  A
C2455      C2460   1.427       .  A
C2456      C2457   1.428       .  A
C2456      C2461   1.446       .  S
C2457      C2458   1.429   1_554  A
C2457      C2464   1.444       .  S
C2458      C2459   1.418       .  A
C2459      C2460   1.417       .  A
C2459      C2462   1.443       .  S
C2460      C2463   1.449       .  S
C2461      N2468   1.156       .  T
C2462      N2467   1.157       .  T
C2463      N2465   1.157       .  T
C2464      N2466   1.158       .  T
C2469      C2470   1.429       .  A
C2469      C2474   1.370       .  A
C2470      C2471   1.430       .  A
C2470      C2475   1.446       .  S
C2471      C2472   1.424       .  A
C2471      C2478   1.441       .  S
C2472      C2473   1.465       .  A
C2473      C2474   1.385       .  A
C2473      C2476   1.437   1_556  S
C2474      C2477   1.460       .  S
C2475      N2482   1.156       .  T
C2476      N2481   1.157       .  T
C2477      N2479   1.157   1_556  T
C2478      N2480   1.156       .  T
C2483      C2484   1.416       .  A
C2483      C2488   1.424   1_554  A
C2484      C2485   1.436       .  A
C2484      C2489   1.451       .  S
C2485      C2486   1.434       .  A
C2485      C2492   1.441       .  S
C2486      C2487   1.432       .  A
C2487      C2488   1.415   1_554  A
C2487      C2490   1.451       .  S
C2488      C2491   1.454       .  S
C2489      N2496   1.157       .  T
C2490      N2495   1.157   1_655  T
C2491      N2493   1.157       .  T
C2492      N2494   1.158       .  T
C2497      C2498   1.374       .  A
C2497      C2502   1.434       .  A
C2498      C2499   1.395       .  A
C2498      C2503   1.468       .  S
C2499      C2500   1.474       .  A
C2499      C2506   1.447       .  S
C2500      C2501   1.411       .  A
C2501      C2502   1.424       .  A
C2501      C2504   1.446       .  S
C2502      C2505   1.449       .  S
C2503      N2510   1.158       .  T
C2504      N2509   1.157       .  T
C2505      N2507   1.156       .  T
C2506      N2508   1.159       .  T
C2511      C2512   1.439       .  A
C2511      C2516   1.397       .  A
C2512      C2513   1.424   1_554  A
C2512      C2517   1.440   1_554  S
C2513      C2514   1.416   1_556  A
C2513      C2520   1.453       .  S
C2514      C2515   1.435       .  A
C2515      C2516   1.422       .  A
C2515      C2518   1.448       .  S
C2516      C2519   1.446       .  S
C2517      N2524   1.157       .  T
C2518      N2523   1.158       .  T
C2519      N2521   1.157       .  T
C2520      N2522   1.158       .  T
C2525      C2526   1.429       .  A
C2525      C2530   1.417       .  A
C2526      C2527   1.420       .  A
C2526      C2531   1.445       .  S
C2527      C2528   1.421   1_554  A
C2527      C2534   1.447       .  S
C2528      C2529   1.427       .  A
C2529      C2530   1.422   1_556  A
C2529      C2532   1.448       .  S
C2530      C2533   1.441       .  S
C2531      N2538   1.158       .  T
C2532      N2537   1.157       .  T
C2533      N2535   1.157       .  T
C2534      N2536   1.156       .  T
C2539      C2540   1.445       .  A
C2539      C2544   1.444       .  A
C2540      C2541   1.448       .  A
C2540      C2545   1.443       .  S
C2541      C2542   1.445       .  A
C2541      C2548   1.454       .  S
C2542      C2543   1.437       .  A
C2543      C2544   1.448       .  A
C2543      C2546   1.440       .  S
C2544      C2547   1.447       .  S
C2545      N2552   1.157       .  T
C2546      N2551   1.155       .  T
C2547      N2549   1.157   1_554  T
C2548      N2550   1.158       .  T
C2553      C2554   1.407       .  A
C2553      C2558   1.462       .  A
C2554      C2555   1.429       .  A
C2554      C2559   1.443       .  S
C2555      C2556   1.438       .  A
C2555      C2562   1.448       .  S
C2556      C2557   1.409       .  A
C2557      C2558   1.431       .  A
C2557      C2560   1.451       .  S
C2558      C2561   1.451       .  S
C2559      N2566   1.157       .  T
C2560      N2565   1.158       .  T
C2561      N2563   1.158       .  T
C2562      N2564   1.157       .  T
C2567      C2568   1.405       .  A
C2567      C2572   1.477       .  A
C2568      C2569   1.432       .  A
C2568      C2573   1.451       .  S
C2569      C2570   1.443       .  A
C2569      C2576   1.438       .  S
C2570      C2571   1.381       .  A
C2571      C2572   1.410       .  A
C2571      C2574   1.461       .  S
C2572      C2575   1.447       .  S
C2573      N2580   1.158       .  T
C2574      N2579   1.157       .  T
C2575      N2577   1.157       .  T
C2576      N2578   1.154       .  T
C2581      C2582   1.410       .  A
C2581      C2586   1.441       .  A
C2582      C2583   1.426       .  A
C2582      C2587   1.457       .  S
C2583      C2584   1.488       .  A
C2583      C2590   1.456       .  S
C2584      C2585   1.452       .  A
C2585      C2586   1.469       .  A
C2585      C2588   1.441       .  S
C2586      C2589   1.452       .  S
C2587      N2594   1.156       .  T
C2588      N2593   1.157       .  T
C2589      N2591   1.157       .  T
C2590      N2592   1.159       .  T
C2595      C2596   1.424       .  A
C2595      C2600   1.385       .  A
C2596      C2597   1.432       .  A
C2596      C2601   1.441       .  S
C2597      C2598   1.422       .  A
C2597      C2604   1.444       .  S
C2598      C2599   1.459       .  A
C2599      C2600   1.383       .  A
C2599      C2602   1.447       .  S
C2600      C2603   1.474       .  S
C2601      N2608   1.157       .  T
C2602      N2607   1.156       .  T
C2603      N2605   1.157       .  T
C2604      N2606   1.157       .  T
C2609      C2610   1.384       .  A
C2609      C2614   1.431       .  A
C2610      C2611   1.381       .  A
C2610      C2615   1.457       .  S
C2611      C2612   1.451       .  A
C2611      C2618   1.448       .  S
C2612      C2613   1.424       .  A
C2613      C2614   1.434       .  A
C2613      C2616   1.443       .  S
C2614      C2617   1.447       .  S
C2615      N2622   1.155       .  T
C2616      N2621   1.157       .  T
C2617      N2619   1.157       .  T
C2618      N2620   1.158       .  T
C2623      C2624   1.419       .  A
C2623      C2628   1.399       .  A
C2624      C2625   1.408       .  A
C2624      C2629   1.449       .  S
C2625      C2626   1.417       .  A
C2625      C2632   1.444       .  S
C2626      C2627   1.447       .  A
C2627      C2628   1.392       .  A
C2627      C2630   1.453       .  S
C2628      C2631   1.444       .  S
C2629      N2636   1.157       .  T
C2630      N2635   1.157       .  T
C2631      N2633   1.155       .  T
C2632      N2634   1.158       .  T
C2637      C2638   1.402       .  A
C2637      C2642   1.377       .  A
C2638      C2639   1.416       .  A
C2638      C2643   1.447       .  S
C2639      C2640   1.434       .  A
C2639      C2646   1.449       .  S
C2640      C2641   1.453       .  A
C2641      C2642   1.385       .  A
C2641      C2644   1.436       .  S
C2642      C2645   1.477       .  S
C2643      N2650   1.157       .  T
C2644      N2649   1.158       .  T
C2645      N2647   1.157       .  T
C2646      N2648   1.158       .  T
C2651      C2652   1.426       .  A
C2651      C2656   1.423       .  A
C2652      C2653   1.396       .  A
C2652      C2657   1.450       .  S
C2653      C2654   1.427   1_545  A
C2653      C2660   1.455   1_545  S
C2654      C2655   1.412       .  A
C2655      C2656   1.416   1_565  A
C2655      C2658   1.446       .  S
C2656      C2659   1.438       .  S
C2657      N2664   1.157       .  T
C2658      N2663   1.158       .  T
C2659      N2661   1.153       .  T
C2660      N2662   1.158       .  T
C2665      C2666   1.442       .  A
C2665      C2670   1.391       .  A
C2666      C2667   1.408       .  A
C2666      C2671   1.453       .  S
C2667      C2668   1.409       .  A
C2667      C2674   1.453       .  S
C2668      C2669   1.430       .  A
C2669      C2670   1.408       .  A
C2669      C2672   1.445       .  S
C2670      C2673   1.446       .  S
C2671      N2678   1.158       .  T
C2672      N2677   1.157       .  T
C2673      N2675   1.157       .  T
C2674      N2676   1.157       .  T
C2679      C2680   1.433       .  A
C2679      C2684   1.446       .  A
C2680      C2681   1.434       .  A
C2680      C2685   1.450       .  S
C2681      C2682   1.438       .  A
C2681      C2688   1.445       .  S
C2682      C2683   1.445       .  A
C2683      C2684   1.454       .  A
C2683      C2686   1.445       .  S
C2684      C2687   1.451       .  S
C2685      N2692   1.158       .  T
C2686      N2691   1.156       .  T
C2687      N2689   1.158       .  T
C2688      N2690   1.157       .  T
C2693      C2694   1.431       .  A
C2693      C2698   1.415       .  A
C2694      C2695   1.429       .  A
C2694      C2699   1.451       .  S
C2695      C2696   1.428       .  A
C2695      C2702   1.446       .  S
C2696      C2697   1.430       .  A
C2697      C2698   1.414       .  A
C2697      C2700   1.447       .  S
C2698      C2701   1.443       .  S
C2699      N2706   1.157       .  T
C2700      N2705   1.157       .  T
C2701      N2703   1.158       .  T
C2702      N2704   1.156       .  T
C2707      C2708   1.433       .  A
C2707      C2712   1.455       .  A
C2708      C2709   1.428       .  A
C2708      C2713   1.433       .  S
C2709      C2710   1.410       .  A
C2709      C2716   1.449       .  S
C2710      C2711   1.375       .  A
C2711      C2712   1.367       .  A
C2711      C2714   1.462       .  S
C2712      C2715   1.445       .  S
C2713      N2720   1.154       .  T
C2714      N2719   1.155       .  T
C2715      N2717   1.158       .  T
C2716      N2718   1.158       .  T
C2721      C2722   1.468   1_455  A
C2721      C2726   1.428   1_565  A
C2722      C2723   1.384       .  A
C2722      C2727   1.452       .  S
C2723      C2724   1.379   1_655  A
C2723      C2730   1.473       .  S
C2724      C2725   1.415   1_565  A
C2725      C2726   1.430       .  A
C2725      C2728   1.445       .  S
C2726      C2729   1.446       .  S
C2727      N2734   1.158       .  T
C2728      N2733   1.156       .  T
C2729      N2731   1.158       .  T
C2730      N2732   1.158       .  T
C2735      C2736   1.448       .  A
C2735      C2740   1.395   1_545  A
C2736      C2737   1.417       .  A
C2736      C2741   1.458       .  S
C2737      C2738   1.421   1_545  A
C2737      C2744   1.452       .  S
C2738      C2739   1.431       .  A
C2739      C2740   1.418       .  A
C2739      C2742   1.446       .  S
C2740      C2743   1.445   1_565  S
C2741      N2748   1.158       .  T
C2742      N2747   1.157       .  T
C2743      N2745   1.158       .  T
C2744      N2746   1.158       .  T
C2749      C2750   1.414   1_455  A
C2749      C2754   1.439       .  A
C2750      C2751   1.418       .  A
C2750      C2755   1.446       .  S
C2751      C2752   1.433       .  A
C2751      C2758   1.452       .  S
C2752      C2753   1.413   1_655  A
C2753      C2754   1.423       .  A
C2753      C2756   1.445       .  S
C2754      C2757   1.450       .  S
C2755      N2762   1.158       .  T
C2756      N2761   1.156       .  T
C2757      N2759   1.157       .  T
C2758      N2760   1.157       .  T
C2763      C2764   1.452       .  A
C2763      C2768   1.439       .  A
C2764      C2765   1.459       .  A
C2764      C2769   1.452   1_545  S
C2765      C2766   1.454       .  A
C2765      C2772   1.449       .  S
C2766      C2767   1.439       .  A
C2767      C2768   1.445       .  A
C2767      C2770   1.451       .  S
C2768      C2771   1.442       .  S
C2769      N2776   1.159       .  T
C2770      N2775   1.157       .  T
C2771      N2773   1.157   1_455  T
C2772      N2774   1.158   1_545  T
C2777      C2778   1.466       .  A
C2777      C2782   1.412       .  A
C2778      C2779   1.392       .  A
C2778      C2783   1.443       .  S
C2779      C2780   1.376       .  A
C2779      C2786   1.461       .  S
C2780      C2781   1.446       .  A
C2781      C2782   1.415       .  A
C2781      C2784   1.455       .  S
C2782      C2785   1.449       .  S
C2783      N2790   1.156       .  T
C2784      N2789   1.157       .  T
C2785      N2787   1.158       .  T
C2786      N2788   1.157       .  T
C2791      C2792   1.452       .  A
C2791      C2796   1.398       .  A
C2792      C2793   1.411       .  A
C2792      C2797   1.454       .  S
C2793      C2794   1.406       .  A
C2793      C2800   1.455       .  S
C2794      C2795   1.425       .  A
C2795      C2796   1.410       .  A
C2795      C2798   1.446       .  S
C2796      C2799   1.446       .  S
C2797      N2804   1.158       .  T
C2798      N2803   1.157       .  T
C2799      N2801   1.158       .  T
C2800      N2802   1.158       .  T
C2805      C2806   1.420       .  A
C2805      C2810   1.432       .  A
C2806      C2807   1.425       .  A
C2806      C2811   1.445       .  S
C2807      C2808   1.432       .  A
C2807      C2814   1.451       .  S
C2808      C2809   1.417       .  A
C2809      C2810   1.425       .  A
C2809      C2812   1.434       .  S
C2810      C2813   1.450       .  S
C2811      N2818   1.158       .  T
C2812      N2817   1.153       .  T
C2813      N2815   1.157       .  T
C2814      N2816   1.157       .  T
C2819      C2820   1.437       .  A
C2819      C2824   1.439       .  A
C2820      C2821   1.449       .  A
C2820      C2825   1.444       .  S
C2821      C2822   1.448       .  A
C2821      C2828   1.438       .  S
C2822      C2823   1.465       .  A
C2823      C2824   1.458       .  A
C2823      C2826   1.447       .  S
C2824      C2827   1.451       .  S
C2825      N2832   1.157       .  T
C2826      N2831   1.158       .  T
C2827      N2829   1.158       .  T
C2828      N2830   1.157       .  T
C2833      C2834   1.452       .  A
C2833      C2838   1.395       .  A
C2834      C2835   1.405       .  A
C2834      C2839   1.456   1_554  S
C2835      C2836   1.403       .  A
C2835      C2842   1.452   1_554  S
C2836      C2837   1.431       .  A
C2837      C2838   1.400       .  A
C2837      C2840   1.448   1_545  S
C2838      C2841   1.443       .  S
C2839      N2846   1.158       .  T
C2840      N2845   1.157       .  T
C2841      N2843   1.156       .  T
C2842      N2844   1.157       .  T
C2847      C2848   1.469       .  A
C2847      C2852   1.407   1_565  A
C2848      C2849   1.400       .  A
C2848      C2853   1.451       .  S
C2849      C2850   1.384       .  A
C2849      C2856   1.460       .  S
C2850      C2851   1.433   1_565  A
C2851      C2852   1.418       .  A
C2851      C2854   1.447       .  S
C2852      C2855   1.441       .  S
C2853      N2860   1.157   1_556  T
C2854      N2859   1.157       .  T
C2855      N2857   1.156       .  T
C2856      N2858   1.156       .  T
C2861      C2862   1.449       .  A
C2861      C2866   1.422       .  A
C2862      C2863   1.433   1_554  A
C2862      C2867   1.450   1_554  S
C2863      C2864   1.420   1_556  A
C2863      C2870   1.445       .  S
C2864      C2865   1.437       .  A
C2865      C2866   1.442       .  A
C2865      C2868   1.447       .  S
C2866      C2869   1.443       .  S
C2867      N2874   1.157       .  T
C2868      N2873   1.157       .  T
C2869      N2871   1.158       .  T
C2870      N2872   1.156       .  T
C2875      C2876   1.451       .  A
C2875      C2880   1.434       .  A
C2876      C2877   1.469       .  A
C2876      C2881   1.446       .  S
C2877      C2878   1.446       .  A
C2877      C2884   1.447   1_545  S
C2878      C2879   1.470       .  A
C2879      C2880   1.454       .  A
C2879      C2882   1.449       .  S
C2880      C2883   1.457       .  S
C2881      N2888   1.158   1_545  T
C2882      N2887   1.159       .  T
C2883      N2885   1.157       .  T
C2884      N2886   1.158       .  T
