geometry optimzed in LAMMPS
_audit_creation_date              2020-11-30 
_audit_creation_method            'lammps2cif' 
_symmetry_space_group_name_H-M    'P1' 
_symmetry_Int_Tables_number       1 
_symmetry_cell_setting            triclinic 
loop_ 
_symmetry_equiv_pos_as_xyz 
  x,y,z 
_cell_length_a                    30.760871879670237 
_cell_length_b                    54.04010553469458 
_cell_length_c                    30.765105296415737 
_cell_angle_alpha                 62.1254118075932 
_cell_angle_beta                  90.07149185298714 
_cell_angle_gamma                 89.98993931612522 
loop_ 
_atom_site_label 
_atom_site_type_symbol 
_atom_site_fract_x 
_atom_site_fract_y 
_atom_site_fract_z 
_atom_site_charge 
Zr1        Zr  0.93828776  0.49277250  0.44568579     2.17510
O2          O  0.88263806  0.01460946  0.38247182    -0.51590
O3          O  0.91803025  0.44571324  0.46225581    -0.74790
O4          O  0.96027437  0.49606454  0.36694700    -0.81580
O5          O  0.86449665  0.99882599  0.54132056    -0.83320
O6          O  0.03396747  0.49648491  0.36429582    -0.78950
O7          O  0.86337339  0.49535847  0.47033055    -0.90580
O8          O  0.95500729  0.41437353  0.52936070    -0.76550
O9          O  0.00387981  0.46617788  0.46585274    -0.86040
O10         O  0.94003531  0.46647120  0.53296765    -0.85730
O11         O  0.99602192  0.02663507  0.41273072    -0.72480
O12         O  0.93667757  0.02685170  0.47504327    -0.84620
Zr13       Zr  0.06354952  0.00675834  0.55241324     2.26420
Zr14       Zr  0.06184629  0.49955275  0.43534651     2.06270
Zr15       Zr  0.94011667  0.00023976  0.56249528     2.10050
Zr16       Zr  0.00570873  0.44030190  0.55301337     1.78760
O17         O  0.90142356  0.03849021  0.56626273    -0.93420
O18         O  0.05075964  0.40916718  0.53491694    -0.41230
O19         O  0.00561195  0.47322388  0.58473640    -0.77860
O20         O  0.06490295  0.47267609  0.52293077    -0.96550
O21         O  0.06154508  0.03313263  0.46518152    -0.89850
O22         O  0.99802510  0.03336530  0.53192107    -0.92700
C23         C  0.92658218  0.42066303  0.49526182     1.01060
C24         C  0.84459345  0.49716627  0.50612453     1.13990
C25         C  0.99649393  0.49639836  0.34592040     1.04770
O26         O  0.10296897  0.46242090  0.43044676    -0.94850
O27         O  0.13767072  0.50196508  0.45654781    -0.90600
O28         O  0.13827187  0.00396614  0.52888201    -0.83740
C29         C  0.15732408  0.00260436  0.49292066     1.11410
O30         O  0.94481704  0.08616922  0.37852821    -0.96830
Zr31       Zr  0.99584702  0.05934192  0.44478711     1.88940
O32         O  0.08956133  0.05379090  0.53019711    -0.73470
O33         O  0.09603026  0.03697040  0.36315931    -0.52740
O34         O  0.03584102  0.08793497  0.36941943    -0.97410
O35         O  0.95205846  0.09184224  0.46086973    -0.54630
O36         O  0.04769470  0.08507518  0.46753040    -0.73990
C37         C  0.07899809  0.07883369  0.49847480     0.98350
O38         O  0.11107212  0.48061993  0.62323287    -0.62810
O39         O  0.90730712  0.46394139  0.63716667    -0.57610
O40         O  0.04146153  0.00681111  0.62850934    -0.94300
O41         O  0.96820910  0.00219560  0.63404609    -0.92720
O42         O  0.96703545  0.41057005  0.62868249    -0.93080
O43         O  0.05495775  0.41220781  0.62021790    -0.91860
C44         C  0.00529768  0.00444946  0.65095862     1.17200
H45         H  0.91511972  0.45427233  0.54531442     0.33140
H46         H  0.09157664  0.46204884  0.53264973     0.43990
H47         H  0.99747706  0.04567880  0.54669914     0.37520
H48         H  0.99355509  0.03713367  0.37739122     0.34000
H49         H  0.03919029  0.39018961  0.55626732     0.25790
H50         H  0.11155900  0.02727673  0.34729007     0.31720
H51         H  0.03849528  0.10650480  0.36821566     0.37630
H52         H  0.96705445  0.39178132  0.63051777     0.32090
H53         H  0.87895659  0.47175819  0.63995598     0.30970
H54         H  0.88552237  0.02952682  0.59787477     0.32650
H55         H  0.96734056  0.11002113  0.44371860     0.31620
H56         H  0.07099225  0.42600838  0.62676141     0.35620
H57         H  0.09186880  0.46745884  0.64979784     0.28350
H58         H  0.87597579  0.00077759  0.37079334     0.32580
H59         H  0.95427922  0.10592534  0.36448067     0.35430
H60         H  0.89981788  0.44868059  0.62928675     0.28040
H61         H  0.12865228  0.46809985  0.61489784     0.40920
H62         H  0.08078209  0.45047574  0.42613652     0.30970
H63         H  0.04223494  0.41308991  0.50125977     0.38590
H64         H  0.95610074  0.08612734  0.49621546     0.30440
H65         H  0.07175061  0.04686620  0.34048468     0.30500
H66         H  0.89729343  0.03026962  0.35448782     0.30770
Zr67       Zr  0.43973413  0.49333091  0.44676293     2.17190
O68         O  0.38591700  0.01485755  0.38121011    -0.51590
O69         O  0.41563053  0.44661216  0.46480511    -0.74790
O70         O  0.46391064  0.49672988  0.36881425    -0.81580
O71         O  0.36359102  0.99872489  0.54014202    -0.83320
O72         O  0.53731551  0.50179309  0.36325010    -0.78950
O73         O  0.36501435  0.49981684  0.46525006    -0.90580
O74         O  0.45748646  0.41470556  0.52640104    -0.76550
O75         O  0.50537350  0.46678637  0.46700704    -0.86040
O76         O  0.43994542  0.46596428  0.53392307    -0.85730
O77         O  0.49723489  0.02741278  0.41582913    -0.72480
O78         O  0.43629921  0.02626022  0.47849646    -0.84620
Zr79       Zr  0.56197455  0.00588619  0.55685753     2.26420
Zr80       Zr  0.56319213  0.50039114  0.43879629     2.06270
Zr81       Zr  0.43852752  0.99861148  0.56592890     2.10050
Zr82       Zr  0.50578302  0.43998642  0.55410472     1.78760
O83         O  0.39788409  0.03485709  0.57418592    -0.93420
O84         O  0.55397810  0.40938612  0.53814285    -0.41230
O85         O  0.50443829  0.47196182  0.58789223    -0.77860
O86         O  0.56503689  0.47245815  0.52616103    -0.96550
O87         O  0.56087758  0.03327586  0.46996858    -0.89850
O88         O  0.49602549  0.03208032  0.53680827    -0.92700
C89         C  0.42691381  0.42137776  0.49449166     1.01060
C90         C  0.34501002  0.50019488  0.50156316     1.13990
C91         C  0.50009239  0.50014274  0.34590730     1.04770
O92         O  0.60241181  0.46425822  0.42869442    -0.94850
O93         O  0.63817903  0.50025874  0.46459016    -0.90600
O94         O  0.63751632  0.00656355  0.53281288    -0.83740
C95         C  0.65714062  0.00341108  0.49892038     1.11410
O96         O  0.44714015  0.08609131  0.38012250    -0.96830
Zr97       Zr  0.49481518  0.05912946  0.44990241     1.88940
O98         O  0.58543866  0.05254685  0.53928044    -0.73470
O99         O  0.60373902  0.03859910  0.37450345    -0.52740
O100        O  0.53737063  0.09039114  0.37845759    -0.97410
O101        O  0.44599768  0.08954922  0.46582632    -0.54630
O102        O  0.54275255  0.08418834  0.47808251    -0.73990
C103        C  0.57344464  0.07765935  0.50978419     0.98350
O104        O  0.60968054  0.47807798  0.62637507    -0.62810
O105        O  0.40448599  0.46048421  0.63726365    -0.57610
O106        O  0.53971487  0.00568592  0.63249744    -0.94300
O107        O  0.46653390  0.00041430  0.63831103    -0.92720
O108        O  0.46401596  0.40985168  0.62702684    -0.93080
O109        O  0.55212040  0.41077800  0.62356095    -0.91860
C110        C  0.50362007  0.00317813  0.65492650     1.17200
H111        H  0.41497708  0.45374648  0.54528278     0.33140
H112        H  0.59183191  0.46194135  0.53627716     0.43990
H113        H  0.49478974  0.04405248  0.55224421     0.37520
H114        H  0.49518203  0.03841198  0.38053523     0.34000
H115        H  0.53952471  0.39087279  0.55368660     0.25790
H116        H  0.61295645  0.03142974  0.35165926     0.31720
H117        H  0.53683583  0.10866805  0.37862244     0.37630
H118        H  0.46412987  0.39130559  0.62788230     0.32090
H119        H  0.38297830  0.46977848  0.64872490     0.30970
H120        H  0.38195967  0.02478656  0.60561564     0.32650
H121        H  0.46175354  0.10753051  0.45378995     0.31620
H122        H  0.56806517  0.42419282  0.63118678     0.35620
H123        H  0.59022320  0.46508979  0.65282861     0.28350
H124        H  0.38104677  0.00132278  0.36842456     0.32580
H125        H  0.45366108  0.10601378  0.36977121     0.35430
H126        H  0.38668470  0.45036453  0.62384467     0.28040
H127        H  0.62600111  0.46564130  0.61667884     0.40920
H128        H  0.57968934  0.45364277  0.42166354     0.30970
H129        H  0.55129769  0.41581921  0.50240279     0.38590
H130        H  0.44557502  0.08183582  0.50200286     0.30440
H131        H  0.58167273  0.05309778  0.35618857     0.30500
H132        H  0.40069887  0.03102612  0.35428501     0.30770
Zr133      Zr  0.18834318  0.24261903  0.44810787     2.17510
O134        O  0.13530245  0.26635175  0.38249751    -0.51590
O135        O  0.16451774  0.19569846  0.46739412    -0.74790
O136        O  0.21077019  0.24388563  0.37112136    -0.81580
O137        O  0.11360221  0.24959900  0.54081596    -0.83320
O138        O  0.28402934  0.24984101  0.36370443    -0.78950
O139        O  0.11381964  0.24501348  0.47127381    -0.90580
O140        O  0.20609459  0.16443982  0.53021872    -0.76550
O141        O  0.25452793  0.21685145  0.46728819    -0.86040
O142        O  0.18992500  0.21597944  0.53530100    -0.85730
O143        O  0.24456563  0.27743121  0.41534670    -0.72480
O144        O  0.18499450  0.27601089  0.47892678    -0.84620
Zr145      Zr  0.31029521  0.25762515  0.55546818     2.26420
Zr146      Zr  0.31111295  0.25120842  0.43715042     2.06270
Zr147      Zr  0.18821516  0.24896893  0.56648180     2.10050
Zr148      Zr  0.25617998  0.19058335  0.55443752     1.78760
O149        O  0.14769313  0.28444659  0.57720159    -0.93420
O150        O  0.30219097  0.16026037  0.53531773    -0.41230
O151        O  0.25437694  0.22283679  0.58777858    -0.77860
O152        O  0.31406270  0.22404012  0.52483684    -0.96550
O153        O  0.30871980  0.28422461  0.46827395    -0.89850
O154        O  0.24421601  0.28338799  0.53561614    -0.92700
C155        C  0.17530366  0.17065596  0.49864324     1.01060
C156        C  0.09412168  0.24758884  0.50573948     1.13990
C157        C  0.24665409  0.24689389  0.34792428     1.04770
O158        O  0.35307028  0.21468243  0.43123360    -0.94850
O159        O  0.38593089  0.25435136  0.46067456    -0.90600
O160        O  0.38502261  0.25797742  0.53119128    -0.83740
C161        C  0.40507213  0.25649381  0.49603049     1.11410
O162        O  0.19201966  0.33615209  0.38134899    -0.96830
Zr163      Zr  0.24249383  0.30969349  0.44845968     1.88940
O164        O  0.33513287  0.30447337  0.53518164    -0.73470
O165        O  0.34622633  0.28905669  0.36637793    -0.52740
O166        O  0.28295120  0.33945855  0.37410513    -0.97410
O167        O  0.19548807  0.34102114  0.46411115    -0.54630
O168        O  0.29301679  0.33560022  0.47270862    -0.73990
C169        C  0.32395120  0.32948807  0.50413001     0.98350
O170        O  0.35736378  0.22996648  0.62559724    -0.62810
O171        O  0.15555640  0.20976625  0.63734423    -0.57610
O172        O  0.28830274  0.25903491  0.63040232    -0.94300
O173        O  0.21591398  0.24923541  0.64020132    -0.92720
O174        O  0.21767407  0.16015885  0.62982694    -0.93080
O175        O  0.30603402  0.16249628  0.62092122    -0.91860
C176        C  0.25259135  0.25407666  0.65470889     1.17200
H177        H  0.16531781  0.20351211  0.54751851     0.33140
H178        H  0.34121757  0.21391070  0.53459239     0.43990
H179        H  0.24292060  0.29555046  0.55067253     0.37520
H180        H  0.24180757  0.28796717  0.38003373     0.34000
H181        H  0.29061656  0.14117301  0.55579709     0.25790
H182        H  0.36143478  0.27969847  0.34971030     0.31720
H183        H  0.28422216  0.35796327  0.37335302     0.37630
H184        H  0.21823292  0.14146387  0.63128974     0.32090
H185        H  0.13789481  0.21849698  0.65339436     0.30970
H186        H  0.13025479  0.27378610  0.60731763     0.32650
H187        H  0.21161821  0.35891673  0.45107477     0.31620
H188        H  0.31652264  0.17541668  0.63318238     0.35620
H189        H  0.33758314  0.21756665  0.65228657     0.28350
H190        H  0.12780610  0.25279664  0.37044707     0.32580
H191        H  0.20041790  0.35604907  0.36825213     0.35430
H192        H  0.13402486  0.20171322  0.62356398     0.28040
H193        H  0.37286128  0.21695781  0.61660055     0.40920
H194        H  0.33127090  0.20327060  0.42489860     0.30970
H195        H  0.29420907  0.16466102  0.50127751     0.38590
H196        H  0.19572960  0.33371725  0.50020196     0.30440
H197        H  0.32216340  0.29951938  0.34384218     0.30500
H198        H  0.15155036  0.28145772  0.35523626     0.30770
Zr199      Zr  0.68810720  0.24239928  0.44555588     2.17510
O200        O  0.63870407  0.26580386  0.37606835    -0.51590
O201        O  0.66170962  0.19568113  0.46724658    -0.74790
O202        O  0.71156970  0.24136421  0.37045352    -0.81580
O203        O  0.61378897  0.25415546  0.53298486    -0.83320
O204        O  0.78472322  0.24663121  0.36434132    -0.78950
O205        O  0.61343956  0.24872363  0.46409729    -0.90580
O206        O  0.70375921  0.16449407  0.52962562    -0.76550
O207        O  0.75290833  0.21514964  0.46752342    -0.86040
O208        O  0.68813235  0.21687270  0.53311798    -0.85730
O209        O  0.74588215  0.27602668  0.41294586    -0.72480
O210        O  0.68642551  0.27675463  0.47446233    -0.84620
Zr211      Zr  0.81121349  0.25654978  0.55320448     2.26420
Zr212      Zr  0.81087043  0.24839605  0.43709438     2.06270
Zr213      Zr  0.68811024  0.25088838  0.56219041     2.10050
Zr214      Zr  0.75322911  0.19014297  0.55491755     1.78760
O215        O  0.65460995  0.28977984  0.56893308    -0.93420
O216        O  0.79903251  0.15710761  0.54281227    -0.41230
O217        O  0.75302599  0.22338644  0.58576849    -0.77860
O218        O  0.81300759  0.22203825  0.52483868    -0.96550
O219        O  0.81058280  0.28233203  0.46599619    -0.89850
O220        O  0.74635645  0.28372331  0.53166218    -0.92700
C221        C  0.67293569  0.17068437  0.49818759     1.01060
C222        C  0.59415879  0.25279565  0.49722523     1.13990
C223        C  0.74773435  0.24392490  0.34780608     1.04770
O224        O  0.85222955  0.21111398  0.43315097    -0.94850
O225        O  0.88571298  0.24995499  0.46022795    -0.90600
O226        O  0.88572842  0.25653627  0.52774686    -0.83740
C227        C  0.90532210  0.25342040  0.49378320     1.11410
O228        O  0.69297728  0.33570570  0.37987950    -0.96830
Zr229      Zr  0.74565454  0.30912023  0.44433579     1.88940
O230        O  0.83788664  0.30290648  0.53262445    -0.73470
O231        O  0.84640519  0.28554870  0.36570105    -0.52740
O232        O  0.78433416  0.33733645  0.36781234    -0.97410
O233        O  0.70509407  0.34302771  0.45985047    -0.54630
O234        O  0.80025985  0.33396646  0.46579292    -0.73990
C235        C  0.82983845  0.32777232  0.49874608     0.98350
O236        O  0.85905494  0.22919964  0.62282490    -0.62810
O237        O  0.64691434  0.21596751  0.63128137    -0.57610
O238        O  0.78955511  0.25762163  0.62837318    -0.94300
O239        O  0.71710937  0.24776535  0.63833590    -0.92720
O240        O  0.71116324  0.16204828  0.62880033    -0.93080
O241        O  0.80017778  0.16183958  0.62437851    -0.91860
C242        C  0.75412489  0.25194801  0.65324039     1.17200
H243        H  0.66286496  0.20497931  0.54519511     0.33140
H244        H  0.83965644  0.21137631  0.53526010     0.43990
H245        H  0.74597876  0.29609349  0.54632552     0.37520
H246        H  0.74368275  0.28621409  0.37754569     0.34000
H247        H  0.78448749  0.13876668  0.56145330     0.25790
H248        H  0.85911903  0.27605747  0.34787010     0.31720
H249        H  0.78778982  0.35589887  0.36646560     0.37630
H250        H  0.71084680  0.14304539  0.63155456     0.32090
H251        H  0.62477376  0.22684882  0.63846947     0.30970
H252        H  0.63701142  0.28085549  0.59933902     0.32650
H253        H  0.72018075  0.36106990  0.44025291     0.31620
H254        H  0.81225556  0.17523135  0.63476384     0.35620
H255        H  0.83961875  0.21640474  0.64952085     0.28350
H256        H  0.63088003  0.25175705  0.36525273     0.32580
H257        H  0.70335197  0.35531923  0.36399059     0.35430
H258        H  0.63011671  0.20553309  0.61769002     0.28040
H259        H  0.87526532  0.21656007  0.61351499     0.40920
H260        H  0.83013515  0.19715981  0.43587725     0.30970
H261        H  0.79474125  0.16180950  0.50793366     0.38590
H262        H  0.71137834  0.33835901  0.49438700     0.30440
H263        H  0.82239943  0.29700734  0.34429250     0.30500
H264        H  0.65619377  0.28009879  0.34895380     0.30770
Zr265      Zr  0.93796887  0.00980766  0.05078307     2.17510
O266        O  0.88538813  0.48724491  0.11716365    -0.51590
O267        O  0.91531137  0.05705059  0.03070935    -0.74790
O268        O  0.96161845  0.00916301  0.12694572    -0.81580
O269        O  0.86110391  0.00291561  0.95954054    -0.83320
O270        O  0.03512551  0.00531452  0.13133712    -0.78950
O271        O  0.86262960  0.00609851  0.03081225    -0.90580
O272        O  0.95518513  0.08792082  0.96570234    -0.76550
O273        O  0.00331924  0.03652075  0.02833414    -0.86040
O274        O  0.93765424  0.03517225  0.96331388    -0.85730
O275        O  0.99537320  0.47573629  0.08366942    -0.72480
O276        O  0.93480279  0.47507880  0.02288757    -0.84620
Zr277      Zr  0.05917310  0.49418840  0.94340643     2.26420
Zr278      Zr  0.06092005  0.00280873  0.05897579     2.06270
Zr279      Zr  0.93580602  0.50079252  0.93518148     2.10050
Zr280      Zr  0.00321359  0.06132424  0.94088797     1.78760
O281        O  0.89808964  0.46096562  0.93607070    -0.93420
O282        O  0.05249904  0.09301620  0.95252597    -0.41230
O283        O  0.00129321  0.02770435  0.91084844    -0.77860
O284        O  0.06241041  0.02890442  0.97120027    -0.96550
O285        O  0.05933050  0.46859868  0.03065619    -0.89850
O286        O  0.99373497  0.46762681  0.96574381    -0.92700
C287        C  0.92596149  0.08191614  0.99873846     1.01060
C288        C  0.84260376  0.00435277  0.99572075     1.13990
C289        C  0.99809431  0.00723839  0.14871027     1.04770
O290        O  0.10326909  0.03944164  0.06396969    -0.94850
O291        O  0.13551334  0.00049439  0.03492004    -0.90600
O292        O  0.13484715  0.49559684  0.96541998    -0.83740
C293        C  0.15470839  0.49807486  0.99998227     1.11410
O294        O  0.94180151  0.41632219  0.11833837    -0.96830
Zr295      Zr  0.99387133  0.44234297  0.05299218     1.88940
O296        O  0.08414662  0.44741859  0.96393655    -0.73470
O297        O  0.09698038  0.46538069  0.12969609    -0.52740
O298        O  0.03320247  0.41431560  0.12928605    -0.97410
O299        O  0.95166685  0.40862908  0.03853602    -0.54630
O300        O  0.04714825  0.41662629  0.03147723    -0.73990
C301        C  0.07581486  0.42257201  0.99771756     0.98350
O302        O  0.10394525  0.02194747  0.87144896    -0.62810
O303        O  0.89854491  0.03487483  0.86146318    -0.57610
O304        O  0.03607520  0.49132079  0.87047776    -0.94300
O305        O  0.96358765  0.50032126  0.86162293    -0.92720
O306        O  0.96062974  0.09001328  0.86758070    -0.93080
O307        O  0.04793363  0.08950436  0.86934736    -0.91860
C308        C  0.00018014  0.49565916  0.84665969     1.17200
H309        H  0.91272491  0.04740350  0.95122109     0.33140
H310        H  0.08919963  0.03935146  0.96058125     0.43990
H311        H  0.99267678  0.45506731  0.95148648     0.37520
H312        H  0.99339305  0.46562505  0.11908306     0.34000
H313        H  0.03743687  0.11134286  0.93731442     0.25790
H314        H  0.11384388  0.47509183  0.14462943     0.31720
H315        H  0.03665945  0.39572361  0.13074911     0.37630
H316        H  0.96081744  0.10896149  0.86506934     0.32090
H317        H  0.87026450  0.02615964  0.86134529     0.30970
H318        H  0.87332006  0.46928537  0.91320326     0.32650
H319        H  0.96652834  0.39047294  0.05806642     0.31620
H320        H  0.07224340  0.07705844  0.87117182     0.35620
H321        H  0.08346114  0.03231662  0.84400731     0.28350
H322        H  0.87886488  0.50108237  0.12886890     0.32580
H323        H  0.95192289  0.39664241  0.13432677     0.35430
H324        H  0.89117346  0.05054775  0.86828790     0.28040
H325        H  0.11598546  0.03677076  0.87816924     0.40920
H326        H  0.08136095  0.05220935  0.06619870     0.30970
H327        H  0.05163727  0.08695926  0.98822545     0.38590
H328        H  0.95729162  0.41314383  0.00395939     0.30440
H329        H  0.07344338  0.45563937  0.15354960     0.30500
H330        H  0.90151408  0.47202626  0.14445850     0.30770
Zr331      Zr  0.43792333  0.00736596  0.05651088     2.17510
O332        O  0.38162881  0.48938024  0.11941872    -0.51590
O333        O  0.41491937  0.05443041  0.03725876    -0.74790
O334        O  0.46173553  0.00353105  0.13502938    -0.81580
O335        O  0.36301217  0.49919545  0.96530549    -0.83320
O336        O  0.53550140  0.00160577  0.13837557    -0.78950
O337        O  0.36312521  0.00098659  0.03750739    -0.90580
O338        O  0.45718865  0.08604678  0.97603294    -0.76550
O339        O  0.50364714  0.03368280  0.03650902    -0.86040
O340        O  0.43869783  0.03426012  0.96935399    -0.85730
O341        O  0.49505935  0.47293452  0.08846509    -0.72480
O342        O  0.43532455  0.47367749  0.02635540    -0.84620
Zr343      Zr  0.56089566  0.49383250  0.94743209     2.26420
Zr344      Zr  0.56105486  0.99974014  0.06573818     2.06270
Zr345      Zr  0.43760440  0.50086636  0.93901254     2.10050
Zr346      Zr  0.50473098  0.06004357  0.94933701     1.78760
O347        O  0.40123826  0.46205413  0.93471262    -0.93420
O348        O  0.55329533  0.09043385  0.96546265    -0.41230
O349        O  0.50324858  0.02769433  0.91638130    -0.77860
O350        O  0.56357786  0.02728813  0.97821837    -0.96550
O351        O  0.55998829  0.46678248  0.03456682    -0.89850
O352        O  0.49523745  0.46752060  0.96803280    -0.92700
C353        C  0.42651365  0.07955850  0.00763252     1.01060
C354        C  0.34358072  0.99893860  0.00239079     1.13990
C355        C  0.49819416  0.00212815  0.15642332     1.04770
O356        O  0.60346310  0.03547275  0.07370618    -0.94850
O357        O  0.63621783  0.99831375  0.04278444    -0.90600
O358        O  0.63618419  0.49436307  0.97221719    -0.83740
C359        C  0.65552010  0.49622954  0.00765413     1.11410
O360        O  0.44400365  0.41337026  0.12166138    -0.96830
Zr361      Zr  0.49418729  0.44080276  0.05503852     1.88940
O362        O  0.58450704  0.44712299  0.96535216    -0.73470
O363        O  0.59484096  0.46087534  0.13628026    -0.52740
O364        O  0.53541344  0.41160821  0.12925456    -0.97410
O365        O  0.44947839  0.40890129  0.03829830    -0.54630
O366        O  0.54500176  0.41553341  0.02986643    -0.73990
C367        C  0.57479110  0.42199222  0.99716901     0.98350
O368        O  0.60865697  0.02081124  0.87766930    -0.62810
O369        O  0.39892886  0.03677924  0.86856987    -0.57610
O370        O  0.53702549  0.49375402  0.87181726    -0.94300
O371        O  0.46435711  0.50182671  0.86442521    -0.92720
O372        O  0.46321416  0.09017985  0.87603048    -0.93080
O373        O  0.55159747  0.08864032  0.88017845    -0.91860
C374        C  0.50079125  0.49786665  0.84845135     1.17200
H375        H  0.41375884  0.04650805  0.95746424     0.33140
H376        H  0.59044767  0.03770821  0.96847464     0.43990
H377        H  0.49406192  0.45552048  0.95265255     0.37520
H378        H  0.49282708  0.46218742  0.12378083     0.34000
H379        H  0.53944086  0.10914092  0.94901250     0.25790
H380        H  0.61192347  0.46980217  0.15245797     0.31720
H381        H  0.53809592  0.39327811  0.12952345     0.37630
H382        H  0.46407638  0.10888138  0.87452790     0.32090
H383        H  0.37631199  0.02644146  0.86071143     0.30970
H384        H  0.37436151  0.47024748  0.91560711     0.32650
H385        H  0.46435272  0.39055687  0.05544665     0.31620
H386        H  0.56739459  0.07499753  0.87302197     0.35620
H387        H  0.58922808  0.03358104  0.85084949     0.28350
H388        H  0.38066892  0.50194291  0.13468344     0.32580
H389        H  0.45386554  0.39369869  0.13537274     0.35430
H390        H  0.38257485  0.04763755  0.88163694     0.28040
H391        H  0.62499965  0.03353459  0.88668355     0.40920
H392        H  0.58179537  0.04717803  0.07944545     0.30970
H393        H  0.54995830  0.08439981  0.00099842     0.38590
H394        H  0.45357913  0.41464693  0.00296123     0.30440
H395        H  0.57070237  0.45129834  0.15931889     0.30500
H396        H  0.39272446  0.47126081  0.14521879     0.30770
Zr397      Zr  0.18753875  0.25738833  0.05463286     2.17510
O398        O  0.13411715  0.23361652  0.11956750    -0.51590
O399        O  0.16492261  0.30421051  0.03730330    -0.74790
O400        O  0.20982651  0.25545007  0.13237841    -0.81580
O401        O  0.11353677  0.24942386  0.96197309    -0.83320
O402        O  0.28379452  0.25465732  0.13595802    -0.78950
O403        O  0.11298258  0.25487765  0.03067468    -0.90580
O404        O  0.20296470  0.33543301  0.97126927    -0.76550
O405        O  0.25315198  0.28372829  0.03503112    -0.86040
O406        O  0.18887478  0.28380720  0.96729121    -0.85730
O407        O  0.24458089  0.22314308  0.08772750    -0.72480
O408        O  0.18522242  0.22387752  0.02398687    -0.84620
Zr409      Zr  0.31078553  0.24331698  0.94782763     2.26420
Zr410      Zr  0.31055626  0.24991818  0.06575328     2.06270
Zr411      Zr  0.18834091  0.25062897  0.93634430     2.10050
Zr412      Zr  0.25455760  0.30980591  0.94789159     1.78760
O413        O  0.14751830  0.21523871  0.92566077    -0.93420
O414        O  0.29873823  0.34076978  0.96732235    -0.41230
O415        O  0.25385899  0.27742703  0.91488060    -0.77860
O416        O  0.31343261  0.27705078  0.97808063    -0.96550
O417        O  0.30922680  0.21674889  0.03501452    -0.89850
O418        O  0.24538008  0.21689807  0.96760554    -0.92700
C419        C  0.17418321  0.32924050  0.00492409     1.01060
C420        C  0.09361898  0.25173077  0.99650214     1.13990
C421        C  0.24608459  0.25525118  0.15334391     1.04770
O422        O  0.35523858  0.28448887  0.07458185    -0.94850
O423        O  0.38572598  0.24758409  0.04262362    -0.90600
O424        O  0.38507982  0.24173497  0.97411419    -0.83740
C425        C  0.40483916  0.24425219  0.00853883     1.11410
O426        O  0.19362772  0.16399241  0.12217627    -0.96830
Zr427      Zr  0.24347779  0.19077203  0.05477404     1.88940
O428        O  0.33511551  0.19654758  0.96687937    -0.73470
O429        O  0.34153609  0.21066498  0.13797657    -0.52740
O430        O  0.28433352  0.16089911  0.12888937    -0.97410
O431        O  0.19663026  0.15948951  0.03878043    -0.54630
O432        O  0.29406148  0.16519398  0.03013101    -0.73990
C433        C  0.32443461  0.17149824  0.99814510     0.98350
O434        O  0.36016552  0.27079887  0.88003672    -0.62810
O435        O  0.15613271  0.28985848  0.86498545    -0.57610
O436        O  0.29010719  0.24431145  0.87068145    -0.94300
O437        O  0.21635268  0.24821517  0.86440276    -0.92720
O438        O  0.21658244  0.34005296  0.87184445    -0.93080
O439        O  0.30474022  0.33797702  0.88204910    -0.91860
C440        C  0.25403711  0.24632020  0.84822751     1.17200
H441        H  0.16397690  0.29606787  0.95509543     0.33140
H442        H  0.34039192  0.28737532  0.96837288     0.43990
H443        H  0.24466562  0.20467817  0.95264705     0.37520
H444        H  0.24192218  0.21269817  0.12305128     0.34000
H445        H  0.28739894  0.35978637  0.94567313     0.25790
H446        H  0.35961634  0.21946203  0.15362422     0.31720
H447        H  0.28551790  0.14241851  0.12953843     0.37630
H448        H  0.21634731  0.35870487  0.87056861     0.32090
H449        H  0.13961720  0.28114706  0.84804747     0.30970
H450        H  0.13146809  0.22579878  0.89438898     0.32650
H451        H  0.21333086  0.14185260  0.05052322     0.31620
H452        H  0.31620056  0.32493684  0.87053593     0.35620
H453        H  0.34137758  0.28382219  0.85274476     0.28350
H454        H  0.12673052  0.24703809  0.13194052     0.32580
H455        H  0.20175274  0.14409901  0.13449985     0.35430
H456        H  0.13356874  0.29744098  0.87843042     0.28040
H457        H  0.37586238  0.28324840  0.89021143     0.40920
H458        H  0.33506104  0.30001094  0.06872255     0.30970
H459        H  0.28949819  0.33686087  0.00074158     0.38590
H460        H  0.19588856  0.16730200  0.00258714     0.30440
H461        H  0.31683483  0.20227130  0.16080449     0.30500
H462        H  0.15018106  0.21831600  0.14679428     0.30770
Zr463      Zr  0.68655042  0.25830592  0.05026362     2.17510
O464        O  0.63267069  0.23541529  0.11506195    -0.51590
O465        O  0.66148240  0.30530061  0.02908323    -0.74790
O466        O  0.70819186  0.25662568  0.12798332    -0.81580
O467        O  0.61185339  0.24976994  0.95919824    -0.83320
O468        O  0.78173603  0.25569172  0.13095615    -0.78950
O469        O  0.61232389  0.25402043  0.02927227    -0.90580
O470        O  0.69940840  0.33630570  0.96248925    -0.76550
O471        O  0.75106737  0.28569885  0.02870629    -0.86040
O472        O  0.68701702  0.28360301  0.96275116    -0.85730
O473        O  0.74432641  0.22470492  0.08366875    -0.72480
O474        O  0.68497406  0.22367140  0.02205235    -0.84620
Zr475      Zr  0.81036379  0.24383076  0.94401371     2.26420
Zr476      Zr  0.80909527  0.25248975  0.05987977     2.06270
Zr477      Zr  0.68694317  0.24936135  0.93430794     2.10050
Zr478      Zr  0.75201209  0.31040295  0.94131631     1.78760
O479        O  0.64748780  0.21161101  0.92968456    -0.93420
O480        O  0.79484773  0.34266621  0.95877219    -0.41230
O481        O  0.75191706  0.27685432  0.91101652    -0.77860
O482        O  0.81182373  0.27849894  0.97210769    -0.96550
O483        O  0.80927743  0.21833072  0.03132282    -0.89850
O484        O  0.74547483  0.21664715  0.96544872    -0.92700
C485        C  0.66998520  0.33018995  0.99539780     1.01060
C486        C  0.59264938  0.25149123  0.99480821     1.13990
C487        C  0.74439275  0.25601206  0.14929479     1.04770
O488        O  0.85018036  0.28965938  0.06466283    -0.94850
O489        O  0.88421668  0.25054715  0.03791449    -0.90600
O490        O  0.88484553  0.24277652  0.97163972    -0.83740
C491        C  0.90419230  0.24632265  0.00540190     1.11410
O492        O  0.69690799  0.16420498  0.12228942    -0.96830
Zr493      Zr  0.74445290  0.19143067  0.05272348     1.88940
O494        O  0.83397422  0.19713922  0.96222199    -0.73470
O495        O  0.84353540  0.21537927  0.13243741    -0.52740
O496        O  0.78731348  0.16294865  0.12598808    -0.97410
O497        O  0.69759513  0.15918298  0.03939558    -0.54630
O498        O  0.79531316  0.16590188  0.02819699    -0.73990
C499        C  0.82427823  0.17220697  0.99471341     0.98350
O500        O  0.86031163  0.27055660  0.87636594    -0.62810
O501        O  0.65414644  0.28593493  0.85987237    -0.57610
O502        O  0.78853644  0.24514543  0.86674642    -0.94300
O503        O  0.71452647  0.24701052  0.86232630    -0.92720
O504        O  0.71418871  0.33927697  0.86441735    -0.93080
O505        O  0.80204535  0.33816125  0.87498854    -0.91860
C506        C  0.75225074  0.24634998  0.84508295     1.17200
H507        H  0.66175976  0.29550595  0.95032458     0.33140
H508        H  0.83852042  0.28908952  0.96191969     0.43990
H509        H  0.74493175  0.20412376  0.95109348     0.37520
H510        H  0.74206543  0.21452176  0.11905196     0.34000
H511        H  0.78278285  0.36140881  0.93671270     0.25790
H512        H  0.85602268  0.22497131  0.15022294     0.31720
H513        H  0.78914865  0.14431377  0.12731800     0.37630
H514        H  0.71398907  0.35829053  0.86161941     0.32090
H515        H  0.62750217  0.27733251  0.85479684     0.30970
H516        H  0.62925087  0.22107220  0.89980082     0.32650
H517        H  0.71525235  0.14203398  0.04954073     0.31620
H518        H  0.81169532  0.32530986  0.86221758     0.35620
H519        H  0.84182751  0.28377543  0.84895385     0.28350
H520        H  0.62453015  0.24942021  0.12584360     0.32580
H521        H  0.70550850  0.14440156  0.13444824     0.35430
H522        H  0.64357315  0.30013397  0.86909500     0.28040
H523        H  0.87657952  0.28285040  0.88644729     0.40920
H524        H  0.82788485  0.30231366  0.06661803     0.30970
H525        H  0.78571218  0.33901653  0.99208763     0.38590
H526        H  0.69486468  0.16719166  0.00328689     0.30440
H527        H  0.81920054  0.20418420  0.15344732     0.30500
H528        H  0.64849287  0.22057286  0.14324512     0.30770
C529        C  0.47308878  0.25500096  0.96051763    -0.12530
C530        C  0.45299574  0.24452960  0.00678402     0.04480
C531        C  0.47923119  0.23624439  0.04908702    -0.07810
C532        C  0.52448382  0.23930667  0.04381457    -0.08560
C533        C  0.54451616  0.24997673  0.99744693    -0.03110
C534        C  0.51820962  0.25820958  0.95526056     0.03710
N535        N  0.53622471  0.27166658  0.90666765     0.66210
H536        H  0.45339640  0.26210606  0.92761210     0.15110
H537        H  0.54429015  0.23237952  0.07660011     0.14820
N538        N  0.46093699  0.22351515  0.09763817     0.73920
O539        O  0.52276081  0.26523597  0.87447650    -0.39530
O540        O  0.55926076  0.29331106  0.89355664    -0.39470
O541        O  0.43420228  0.20362867  0.11015987    -0.40180
O542        O  0.47643599  0.22901717  0.13016564    -0.40240
C543        C  0.97478559  0.24386823  0.96769261    -0.12530
C544        C  0.95276979  0.24630576  0.00555777     0.04480
C545        C  0.97778766  0.25033986  0.04049394    -0.07810
C546        C  0.02310397  0.25255968  0.03588150    -0.08560
C547        C  0.04508891  0.25040945  0.99771977    -0.03110
C548        C  0.02009316  0.24606290  0.96310908     0.03710
N549        N  0.03959291  0.24448334  0.92223158     0.66210
H550        H  0.95668074  0.24096430  0.94018757     0.15110
H551        H  0.04122461  0.25551002  0.06332710     0.14820
N552        N  0.95826704  0.25162181  0.08164691     0.73920
O553        O  0.03273609  0.22332833  0.91599301    -0.39530
O554        O  0.05498859  0.26636138  0.88722570    -0.39470
O555        O  0.94066611  0.23000274  0.11503435    -0.40180
O556        O  0.96667023  0.27195453  0.08977959    -0.40240
C557        C  0.39536390  0.14963120  0.99945104    -0.12530
C558        C  0.34982838  0.14821039  0.99854696     0.04480
C559        C  0.32972653  0.12371706  0.00241863    -0.07810
C560        C  0.35582944  0.10117342  0.00773238    -0.08560
C561        C  0.40134965  0.10264744  0.00830713    -0.03110
C562        C  0.42147413  0.12698567  0.00509137     0.03710
N563        N  0.46782084  0.12849504  0.01010712     0.66210
H564        H  0.41059981  0.16807487  0.99805886     0.15110
H565        H  0.34052516  0.08274862  0.00912491     0.14820
N566        N  0.28330853  0.12185111  0.99863466     0.73920
O567        O  0.48686783  0.15189923  0.99041140    -0.39530
O568        O  0.48881405  0.10712535  0.03968856    -0.39470
O569        O  0.26173756  0.14291166  0.96907774    -0.40180
O570        O  0.26459379  0.09836658  0.01979896    -0.40240
C571        C  0.57747193  0.37423718  0.00453818    -0.12530
C572        C  0.59969370  0.39873429  0.99642464     0.04480
C573        C  0.64494967  0.40066237  0.98700434    -0.07810
C574        C  0.66653614  0.37821286  0.98558990    -0.08560
C575        C  0.64445839  0.35363669  0.99427846    -0.03110
C576        C  0.59907494  0.35182606  0.00272889     0.03710
N577        N  0.57415167  0.32829000  0.00678730     0.66210
H578        H  0.54264876  0.37299227  0.01051108     0.15110
H579        H  0.70137842  0.37947276  0.97968721     0.14820
N580        N  0.66997037  0.42435667  0.98179079     0.73920
O581        O  0.54019772  0.32087011  0.03279925    -0.39530
O582        O  0.58217970  0.31758218  0.97893345    -0.39470
O583        O  0.66349359  0.43470177  0.01043948    -0.40180
O584        O  0.70278602  0.43218103  0.95396680    -0.40240
C585        C  0.77567899  0.47850481  0.03346066    -0.12530
C586        C  0.79474984  0.00327606  0.99787114     0.04480
C587        C  0.76789422  0.02604486  0.96647224    -0.07810
C588        C  0.72247180  0.02250263  0.97089597    -0.08560
C589        C  0.70342801  0.49767789  0.00634488    -0.03110
C590        C  0.73033926  0.47535005  0.03870579     0.03710
N591        N  0.71288022  0.44925596  0.07600045     0.66210
H592        H  0.79658748  0.46145354  0.05772344     0.15110
H593        H  0.70135892  0.03946272  0.94679184     0.14820
N594        N  0.78527764  0.05295448  0.93144221     0.73920
O595        O  0.73501129  0.42704900  0.09143511    -0.39530
O596        O  0.67672787  0.44835791  0.09598771    -0.39470
O597        O  0.82550292  0.05672389  0.92307459    -0.40180
O598        O  0.76016702  0.07363207  0.90937909    -0.40240
C599        C  0.22525973  0.48826419  0.04509206    -0.12530
C600        C  0.20304826  0.49796918  0.00012626     0.04480
C601        C  0.22754902  0.00689629  0.95657434    -0.07810
C602        C  0.27297317  0.00625009  0.95866384    -0.08560
C603        C  0.29530545  0.99690162  0.00348076    -0.03110
C604        C  0.27086338  0.48711264  0.04742491     0.03710
N605        N  0.29143430  0.47442933  0.09477526     0.66210
H606        H  0.20699404  0.48052501  0.07903923     0.15110
H607        H  0.29086280  0.01413694  0.92444064     0.14820
N608        N  0.20709862  0.01864330  0.90942255     0.73920
O609        O  0.27768132  0.47958723  0.12835413    -0.39530
O610        O  0.31781986  0.45449035  0.10562432    -0.39470
O611        O  0.19494859  0.04386525  0.88970083    -0.40180
O612        O  0.21030597  0.50630581  0.88342341    -0.40240
C613        C  0.85942956  0.11002177  0.97767712    -0.12530
C614        C  0.90124270  0.10529532  0.99820027     0.04480
C615        C  0.91786894  0.12282249  0.01704362    -0.07810
C616        C  0.89132616  0.14450129  0.01503950    -0.08560
C617        C  0.84940416  0.14908861  0.99481865    -0.03110
C618        C  0.83307065  0.13182494  0.97534366     0.03710
N619        N  0.79095608  0.13634289  0.95200324     0.66210
H620        H  0.84728536  0.09646636  0.96327700     0.15110
H621        H  0.90340787  0.15812045  0.02933014     0.14820
N622        N  0.96052116  0.11882455  0.03913478     0.73920
O623        O  0.78311430  0.12709200  0.92194585    -0.39530
O624        O  0.76075803  0.14840699  0.96253940    -0.39470
O625        O  0.99002620  0.10589644  0.02956808    -0.40180
O626        O  0.96967909  0.12960227  0.06664482    -0.40240
C627        C  0.11395872  0.37709182  0.04450999    -0.12530
C628        C  0.10151006  0.39909389  0.99876473     0.04480
C629        C  0.11322806  0.39783321  0.95543831    -0.07810
C630        C  0.13655583  0.37473488  0.95883327    -0.08560
C631        C  0.14891801  0.35268912  0.00453093    -0.03110
C632        C  0.13747404  0.35399255  0.04792901     0.03710
N633        N  0.15106634  0.33291336  0.09550429     0.66210
H634        H  0.10557325  0.37791382  0.07802585     0.15110
H635        H  0.14488110  0.37396299  0.92525365     0.14820
N636        N  0.10026949  0.41911602  0.90781159     0.73920
O637        O  0.17239348  0.33996974  0.12303003    -0.39530
O638        O  0.13380336  0.30897372  0.11396328    -0.39470
O639        O  0.11993536  0.44229008  0.88857641    -0.40180
O640        O  0.07689146  0.41259623  0.88098171    -0.40240
C641        C  0.76884411  0.27295389  0.70818151    -0.12530
C642        C  0.75607619  0.24955385  0.70300589     0.04480
C643        C  0.74333702  0.22472421  0.74502347    -0.07810
C644        C  0.74191988  0.22446681  0.79092632    -0.08560
C645        C  0.75390417  0.24803124  0.79592520    -0.03110
C646        C  0.76749557  0.27270235  0.75410281     0.03710
N647        N  0.77857744  0.29781122  0.75709716     0.66210
H648        H  0.77821665  0.29193476  0.67574795     0.15110
H649        H  0.73233096  0.20553879  0.82334356     0.14820
N650        N  0.73318752  0.19949133  0.74208672     0.73920
O651        O  0.80355237  0.31575130  0.72555224    -0.39530
O652        O  0.76025376  0.30359147  0.78794690    -0.39470
O653        O  0.75246544  0.19382935  0.71159525    -0.40180
O654        O  0.70865866  0.18122607  0.77370727    -0.40240
C655        C  0.70752454  0.25249341  0.27124405    -0.12530
C656        C  0.74657250  0.24521375  0.29827249     0.04480
C657        C  0.78451767  0.24193594  0.27544811    -0.07810
C658        C  0.78277970  0.24668575  0.22670852    -0.08560
C659        C  0.74390137  0.25411503  0.19938006    -0.03110
C660        C  0.70574838  0.25726095  0.22223119     0.03710
N661        N  0.66534340  0.26628631  0.19613837     0.66210
H662        H  0.67829122  0.25571208  0.28755967     0.15110
H663        H  0.81226255  0.24344652  0.21080670     0.14820
N664        N  0.82481775  0.23260265  0.30159543     0.73920
O665        O  0.63038352  0.25432137  0.21670113    -0.39530
O666        O  0.66354175  0.28917366  0.15689438    -0.39470
O667        O  0.82640601  0.20938123  0.34015780    -0.40180
O668        O  0.85984696  0.24479898  0.28173204    -0.40240
C669        C  0.23657524  0.22892413  0.74348076    -0.12530
C670        C  0.25363708  0.25287414  0.70368485     0.04480
C671        C  0.27209729  0.27431020  0.71195808    -0.07810
C672        C  0.27345502  0.27082824  0.76021381    -0.08560
C673        C  0.25596008  0.24698744  0.79982144    -0.03110
C674        C  0.23781280  0.22547640  0.79164330     0.03710
N675        N  0.22178715  0.19983502  0.83152330     0.66210
H676        H  0.22322727  0.21237801  0.73699002     0.15110
H677        H  0.28650316  0.28742734  0.76675572     0.14820
N678        N  0.28725143  0.30018622  0.67202485     0.73920
O679        O  0.19537107  0.18468364  0.82312948    -0.39530
O680        O  0.23752781  0.19057998  0.87419896    -0.39470
O681        O  0.26861469  0.31049823  0.63066131    -0.40180
O682        O  0.31544479  0.31466729  0.67975098    -0.40240
C683        C  0.26456880  0.27191473  0.25926695    -0.12530
C684        C  0.24474387  0.24878029  0.29828153     0.04480
C685        C  0.22428917  0.22832790  0.28876105    -0.07810
C686        C  0.22444621  0.23159112  0.24069631    -0.08560
C687        C  0.24428032  0.25468675  0.20180799    -0.03110
C688        C  0.26419260  0.27544746  0.21091332     0.03710
N689        N  0.28294623  0.30042344  0.17185487     0.66210
H690        H  0.27962942  0.28774029  0.26653400     0.15110
H691        H  0.20961139  0.21558234  0.23373403     0.14820
N692        N  0.20586815  0.20328259  0.32743140     0.73920
O693        O  0.30994113  0.31471649  0.18167091    -0.39530
O694        O  0.26920223  0.31007042  0.12826060    -0.39470
O695        O  0.17623079  0.20481216  0.35437574    -0.40180
O696        O  0.21333277  0.17997398  0.32871024    -0.40240
C697        C  0.47606842  0.26143617  0.45369650    -0.12530
C698        C  0.45352366  0.25693903  0.49645419     0.04480
C699        C  0.47798976  0.25240401  0.53868902    -0.07810
C700        C  0.52340063  0.25120607  0.53772348    -0.08560
C701        C  0.54589889  0.25551618  0.49506947    -0.03110
C702        C  0.52159873  0.26150033  0.45214734     0.03710
N703        N  0.54233643  0.26952782  0.40585711     0.66210
H704        H  0.45825317  0.26588553  0.42042759     0.15110
H705        H  0.54115315  0.24688176  0.57097816     0.14820
N706        N  0.45771747  0.24876192  0.58316363     0.73920
O707        O  0.53101384  0.25825840  0.37975362    -0.39530
O708        O  0.56475611  0.29163498  0.38680663    -0.39470
O709        O  0.46425784  0.22648623  0.62255009    -0.40180
O710        O  0.44246213  0.26983301  0.58537884    -0.40240
C711        C  0.97506747  0.25383531  0.53450453    -0.12530
C712        C  0.95373097  0.25303614  0.49473804     0.04480
C713        C  0.97919278  0.25027161  0.45889605    -0.07810
C714        C  0.02439358  0.24785152  0.46425819    -0.08560
C715        C  0.04572623  0.24865223  0.50405063    -0.03110
C716        C  0.02024537  0.25154369  0.53975528     0.03710
N717        N  0.03909810  0.25142082  0.58243480     0.66210
H718        H  0.95653954  0.25552879  0.56291736     0.15110
H719        H  0.04293897  0.24595187  0.43604626     0.14820
N720        N  0.96026079  0.25063287  0.41603995     0.73920
O721        O  0.03146590  0.27145259  0.59163274    -0.39530
O722        O  0.05458944  0.22893434  0.61589657    -0.39470
O723        O  0.94293806  0.27285196  0.38386681    -0.40180
O724        O  0.96888753  0.23122192  0.40550699    -0.40240
C725        C  0.46439262  0.00122945  0.72710688    -0.12530
C726        C  0.50425183  0.00301379  0.70356645     0.04480
C727        C  0.54315001  0.50298498  0.72847076    -0.07810
C728        C  0.54107528  0.50060212  0.77582698    -0.08560
C729        C  0.50112606  0.49861287  0.79938263    -0.03110
C730        C  0.46233515  0.99871713  0.77436481     0.03710
N731        N  0.42047407  0.99495240  0.79691262     0.66210
H732        H  0.43409060  0.00092458  0.70937155     0.15110
H733        H  0.57121856  0.50095524  0.79378963     0.14820
N734        N  0.58509223  0.50561059  0.70654221     0.73920
O735        O  0.39031326  0.01212086  0.77470421    -0.39530
O736        O  0.41126367  0.47177019  0.83328273    -0.39470
O737        O  0.59599509  0.02858979  0.67061778    -0.40180
O738        O  0.61394374  0.48744452  0.72905941    -0.40240
C739        C  0.53012046  0.01587533  0.21569591    -0.12530
C740        C  0.49764192  0.00130745  0.20507216     0.04480
C741        C  0.46516796  0.48696780  0.24048709    -0.07810
C742        C  0.46583499  0.48778386  0.28537053    -0.08560
C743        C  0.49869925  0.50208521  0.29626856    -0.03110
C744        C  0.53064595  0.01683816  0.26033838     0.03710
N745        N  0.56212545  0.03429121  0.26716443     0.66210
H746        H  0.55443434  0.02754929  0.18820840     0.15110
H747        H  0.44157037  0.47604606  0.31285355     0.14820
N748        N  0.43318925  0.46998739  0.23301325     0.73920
O749        O  0.60102384  0.03450285  0.25394463    -0.39530
O750        O  0.54956371  0.05295592  0.27800959    -0.39470
O751        O  0.44491655  0.45220861  0.21961277    -0.40180
O752        O  0.39457644  0.46950059  0.24726363    -0.40240
C753        C  0.39502751  0.35082389  0.50493138    -0.12530
C754        C  0.34949010  0.35291711  0.50327811     0.04480
C755        C  0.32970516  0.37805192  0.49686140    -0.07810
C756        C  0.35605710  0.40050967  0.49154093    -0.08560
C757        C  0.40156970  0.39834877  0.49357034    -0.03110
C758        C  0.42139219  0.37333896  0.49940666     0.03710
N759        N  0.46786095  0.37094723  0.49727004     0.66210
H760        H  0.41020763  0.33189134  0.50834201     0.15110
H761        H  0.34082614  0.41940033  0.48825462     0.14820
N762        N  0.28323792  0.38065736  0.49828538     0.73920
O763        O  0.48606810  0.34735588  0.52022193    -0.39530
O764        O  0.48999252  0.39149999  0.46718412    -0.39470
O765        O  0.26084291  0.36049655  0.52899446    -0.40180
O766        O  0.26524317  0.40419782  0.47383976    -0.40240
C767        C  0.64340833  0.09979682  0.51000687    -0.12530
C768        C  0.59788721  0.10085801  0.51066142     0.04480
C769        C  0.57697524  0.12517399  0.50667091    -0.07810
C770        C  0.60237097  0.14824394  0.50014610    -0.08560
C771        C  0.64790126  0.14723100  0.49902793    -0.03110
C772        C  0.66868713  0.12279512  0.50366223     0.03710
N773        N  0.71507846  0.12153500  0.49942557     0.66210
H774        H  0.65935029  0.08143385  0.51185323     0.15110
H775        H  0.58662755  0.16668390  0.49819674     0.14820
N776        N  0.53054069  0.12628892  0.51154269     0.73920
O777        O  0.73507505  0.09876000  0.52407195    -0.39530
O778        O  0.73532441  0.14208384  0.46659529    -0.39470
O779        O  0.50998410  0.10482016  0.54139158    -0.40180
O780        O  0.51085209  0.14947983  0.49112781    -0.40240
C781        C  0.96603051  0.99680600  0.72683828    -0.12530
C782        C  0.00538416  0.00326863  0.70042142     0.04480
C783        C  0.04340425  0.00636736  0.72352180    -0.07810
C784        C  0.04104324  0.50261053  0.77180653    -0.08560
C785        C  0.00154447  0.49633869  0.79780861    -0.03110
C786        C  0.96374909  0.49295248  0.77497450     0.03710
N787        N  0.92319486  0.48422050  0.80070490     0.66210
H788        H  0.93656695  0.99364053  0.71076292     0.15110
H789        H  0.07025909  0.50570287  0.78837860     0.14820
N790        N  0.08437819  0.01408284  0.69852936     0.73920
O791        O  0.88817925  0.99574804  0.77939019    -0.39530
O792        O  0.92155317  0.46200753  0.84109667    -0.39470
O793        O  0.08811034  0.03725423  0.66013028    -0.40180
O794        O  0.11826123  0.50063984  0.71971052    -0.40240
C795        C  0.03332585  0.00775478  0.26695262    -0.12530
C796        C  0.99576145  0.49807018  0.29615754     0.04480
C797        C  0.95843195  0.49189516  0.27586102    -0.07810
C798        C  0.95945829  0.49633629  0.22703654    -0.08560
C799        C  0.99721454  0.00588105  0.19814833    -0.03110
C800        C  0.03439967  0.01172433  0.21872151     0.03710
N801        N  0.07321782  0.02267532  0.19069102     0.66210
H802        H  0.06214829  0.01308760  0.28108200     0.15110
H803        H  0.93101095  0.49096633  0.21240187     0.14820
N804        N  0.92008907  0.47981322  0.30459792     0.73920
O805        O  0.07425596  0.04783629  0.15759664    -0.39530
O806        O  0.10803100  0.00871774  0.20388593    -0.39470
O807        O  0.88298883  0.48781967  0.28554546    -0.40180
O808        O  0.92310589  0.45794545  0.34541966    -0.40240
C809        C  0.72514618  0.47652976  0.52740713    -0.12530
C810        C  0.70501900  0.00259479  0.50025781     0.04480
C811        C  0.73080202  0.02703631  0.47706241    -0.07810
C812        C  0.77637989  0.02432671  0.47989289    -0.08560
C813        C  0.79658918  0.49817531  0.50630178    -0.03110
C814        C  0.77063647  0.47394865  0.53193365     0.03710
N815        N  0.78931997  0.44683389  0.56303705     0.66210
H816        H  0.70497140  0.45809986  0.54635649     0.15110
H817        H  0.79646261  0.04282028  0.46119834     0.14820
N818        N  0.71176285  0.05458625  0.45136945     0.73920
O819        O  0.76825372  0.42484424  0.57241180    -0.39530
O820        O  0.82510641  0.44459683  0.58466458    -0.39470
O821        O  0.73296312  0.07575586  0.44641316    -0.40180
O822        O  0.67463127  0.05820607  0.43181133    -0.40240
C823        C  0.22916985  0.02239878  0.45636676    -0.12530
C824        C  0.20533242  0.00116098  0.49431279     0.04480
C825        C  0.22762988  0.47981786  0.53469050    -0.07810
C826        C  0.27316064  0.48081301  0.53682311    -0.08560
C827        C  0.29705892  0.50202961  0.49900314    -0.03110
C828        C  0.27485996  0.02333780  0.45833618     0.03710
N829        N  0.29777560  0.04655886  0.42009058     0.66210
H830        H  0.21187446  0.03894630  0.42595582     0.15110
H831        H  0.29033116  0.46418766  0.56726728     0.14820
N832        N  0.20487507  0.45634976  0.57242989     0.73920
O833        O  0.28132107  0.05972407  0.37769214    -0.39530
O834        O  0.33183063  0.05607401  0.42981788    -0.39470
O835        O  0.17303737  0.44560267  0.56144055    -0.40180
O836        O  0.22011357  0.44391399  0.61552146    -0.40240
C837        C  0.92234099  0.37149091  0.50948295    -0.12530
C838        C  0.90151972  0.39735342  0.49477495     0.04480
C839        C  0.85712780  0.40016872  0.48069281    -0.07810
C840        C  0.83509078  0.37718102  0.48183840    -0.08560
C841        C  0.85558025  0.35119394  0.49769482    -0.03110
C842        C  0.89993459  0.34848148  0.51116193     0.03710
N843        N  0.92327059  0.32300949  0.52451652     0.66210
H844        H  0.95642777  0.36911352  0.51964586     0.15110
H845        H  0.80095414  0.37935604  0.47194144     0.14820
N846        N  0.83314941  0.42552037  0.46760845     0.73920
O847        O  0.95367011  0.32266309  0.49728946    -0.39530
O848        O  0.91992470  0.30308312  0.56759308    -0.39470
O849        O  0.80305645  0.43272231  0.43607371    -0.40180
O850        O  0.83693242  0.43814859  0.49300745    -0.40240
C851        C  0.08197599  0.12509565  0.49662279    -0.12530
C852        C  0.10448402  0.10234063  0.49725637     0.04480
C853        C  0.15050637  0.10235695  0.49738833    -0.07810
C854        C  0.17266225  0.12463266  0.49914802    -0.08560
C855        C  0.15011554  0.14728585  0.49890969    -0.03110
C856        C  0.10409150  0.14745143  0.49798057     0.03710
N857        N  0.07931910  0.16924709  0.50088817     0.66210
H858        H  0.04673726  0.12491410  0.49695165     0.15110
H859        H  0.20789335  0.12488824  0.49874003     0.14820
N860        N  0.17510539  0.08095963  0.49294555     0.73920
O861        O  0.04258859  0.17618670  0.48029562    -0.39530
O862        O  0.09105876  0.17880308  0.52946641    -0.39470
O863        O  0.16170212  0.07095986  0.46559707    -0.40180
O864        O  0.21302505  0.07489740  0.51057944    -0.40240
Zr865      Zr  0.93828542  0.99277314  0.44568560     2.17510
O866        O  0.88264052  0.51460885  0.38247187    -0.51590
O867        O  0.91802833  0.94571386  0.46225535    -0.74790
O868        O  0.96027204  0.99606530  0.36694668    -0.81580
O869        O  0.86449901  0.49882553  0.54132052    -0.83320
O870        O  0.03396515  0.99648572  0.36429558    -0.78950
O871        O  0.86337104  0.99535880  0.47033070    -0.90580
O872        O  0.95500548  0.91437419  0.52936017    -0.76550
O873        O  0.00387754  0.96617860  0.46585251    -0.86040
O874        O  0.94003305  0.96647182  0.53296748    -0.85730
O875        O  0.99602440  0.52663433  0.41273087    -0.72480
O876        O  0.93668001  0.52685111  0.47504330    -0.84620
Zr877      Zr  0.06355186  0.50675762  0.55241353     2.26420
Zr878      Zr  0.06184388  0.99955357  0.43534623     2.06270
Zr879      Zr  0.94011902  0.50023919  0.56249531     2.10050
Zr880      Zr  0.00570652  0.94030260  0.55301314     1.78760
O881        O  0.90142579  0.53848960  0.56626277    -0.93420
O882        O  0.05075779  0.90916785  0.53491716    -0.41230
O883        O  0.00560970  0.97322455  0.58473620    -0.77860
O884        O  0.06490067  0.97267683  0.52293046    -0.96550
O885        O  0.06154755  0.53313184  0.46518177    -0.89850
O886        O  0.99802752  0.53336467  0.53192112    -0.92700
C887        C  0.92658043  0.92066365  0.49526125     1.01060
C888        C  0.84459110  0.99716663  0.50612466     1.13990
C889        C  0.99649166  0.99639914  0.34592012     1.04770
O890        O  0.10296667  0.96242186  0.43044613    -0.94850
O891        O  0.13766833  0.00196587  0.45654743    -0.90600
O892        O  0.13827421  0.50396543  0.52888234    -0.83740
C893        C  0.15732644  0.50260362  0.49292101     1.11410
O894        O  0.94482007  0.58616861  0.37852779    -0.96830
Zr895      Zr  0.99584959  0.55934121  0.44478714     1.88940
O896        O  0.08956364  0.55379018  0.53019749    -0.73470
O897        O  0.09603288  0.53696944  0.36315956    -0.52740
O898        O  0.03584409  0.58793414  0.36941979    -0.97410
O899        O  0.95206086  0.59184161  0.46086939    -0.54630
O900        O  0.04769704  0.58507443  0.46753071    -0.73990
C901        C  0.07900035  0.57883296  0.49847520     0.98350
O902        O  0.11106975  0.98062071  0.62323265    -0.62810
O903        O  0.90730457  0.96394200  0.63716653    -0.57610
O904        O  0.04146374  0.50681051  0.62850959    -0.94300
O905        O  0.96821126  0.50219528  0.63404592    -0.92720
O906        O  0.96703280  0.91057080  0.62868197    -0.93080
O907        O  0.05495523  0.91220854  0.62021805    -0.91860
C908        C  0.00529979  0.50444907  0.65095861     1.17200
H909        H  0.91511750  0.95427291  0.54531425     0.33140
H910        H  0.09157438  0.96204960  0.53264935     0.43990
H911        H  0.99747947  0.54567821  0.54669912     0.37520
H912        H  0.99355760  0.53713291  0.37739137     0.34000
H913        H  0.03918835  0.89019029  0.55626740     0.25790
H914        H  0.11156150  0.52727569  0.34729037     0.31720
H915        H  0.03849835  0.60650398  0.36821597     0.37630
H916        H  0.96705191  0.89178205  0.63051730     0.32090
H917        H  0.87895440  0.97175903  0.63995622     0.30970
H918        H  0.88552452  0.52952618  0.59787476     0.32650
H919        H  0.96734313  0.61002046  0.44371853     0.31620
H920        H  0.07099031  0.92600916  0.62676088     0.35620
H921        H  0.09186648  0.96745944  0.64979747     0.28350
H922        H  0.87597815  0.50077695  0.37079350     0.32580
H923        H  0.95428230  0.60592471  0.36448035     0.35430
H924        H  0.89981461  0.94868142  0.62928629     0.28040
H925        H  0.12865025  0.96810079  0.61489753     0.40920
H926        H  0.08077979  0.95047654  0.42613631     0.30970
H927        H  0.04223338  0.91309060  0.50125990     0.38590
H928        H  0.95610278  0.58612664  0.49621518     0.30440
H929        H  0.07175327  0.54686530  0.34048491     0.30500
H930        H  0.89729597  0.53026894  0.35448782     0.30770
Zr931      Zr  0.43973185  0.99333177  0.44676241     2.17190
O932        O  0.38591900  0.51485641  0.38121087    -0.51590
O933        O  0.41562828  0.94661301  0.46480455    -0.74790
O934        O  0.46390849  0.99673046  0.36881390    -0.81580
O935        O  0.36359338  0.49872388  0.54014272    -0.83320
O936        O  0.53731338  0.00179355  0.36325006    -0.78950
O937        O  0.36501200  0.99981755  0.46524960    -0.90580
O938        O  0.45748430  0.91470646  0.52640045    -0.76550
O939        O  0.50537112  0.96678712  0.46700686    -0.86040
O940        O  0.43994296  0.96596526  0.53392259    -0.85730
O941        O  0.49723706  0.52741201  0.41582958    -0.72480
O942        O  0.43630143  0.52625928  0.47849711    -0.84620
Zr943      Zr  0.56197688  0.50588534  0.55685801     2.26420
Zr944      Zr  0.56318986  0.00039180  0.43879610     2.06270
Zr945      Zr  0.43852991  0.49861042  0.56592951     2.10050
Zr946      Zr  0.50578044  0.93998728  0.55410456     1.78760
O947        O  0.39788609  0.53485574  0.57418705    -0.93420
O948        O  0.55397579  0.90938677  0.53814357    -0.41230
O949        O  0.50443581  0.97196279  0.58789180    -0.77860
O950        O  0.56503446  0.97245888  0.52616084    -0.96550
O951        O  0.56087978  0.53327508  0.46996906    -0.89850
O952        O  0.49602773  0.53207936  0.53680886    -0.92700
C953        C  0.42691170  0.92137863  0.49449103     1.01060
C954        C  0.34500767  0.00019571  0.50156259     1.13990
C955        C  0.50009033  0.00014319  0.34590715     1.04770
O956        O  0.60240952  0.96425894  0.42869403    -0.94850
O957        O  0.63817673  0.00025909  0.46459025    -0.90600
O958        O  0.63751864  0.50656280  0.53281322    -0.83740
C959        C  0.65714294  0.50341059  0.49892044     1.11410
O960        O  0.44714243  0.58609050  0.38012300    -0.96830
Zr961      Zr  0.49481729  0.55912859  0.44990303     1.88940
O962        O  0.58544080  0.55254602  0.53928099    -0.73470
O963        O  0.60374128  0.53859839  0.37450354    -0.52740
O964        O  0.53737287  0.59039034  0.37845838    -0.97410
O965        O  0.44599955  0.58954820  0.46582703    -0.54630
O966        O  0.54275447  0.58418746  0.47808326    -0.73990
C967        C  0.57344661  0.57765850  0.50978487     0.98350
O968        O  0.60967811  0.97807879  0.62637467    -0.62810
O969        O  0.40448309  0.96048555  0.63726302    -0.57610
O970        O  0.53971714  0.50568511  0.63249795    -0.94300
O971        O  0.46653616  0.50041353  0.63831138    -0.92720
O972        O  0.46401262  0.90985276  0.62702616    -0.93080
O973        O  0.55211711  0.91077883  0.62356148    -0.91860
C974        C  0.50362227  0.50317742  0.65492687     1.17200
H975        H  0.41497458  0.95374749  0.54528226     0.33140
H976        H  0.59182943  0.96194204  0.53627708     0.43990
H977        H  0.49479191  0.54405150  0.55224484     0.37520
H978        H  0.49518411  0.53841126  0.38053570     0.34000
H979        H  0.53952223  0.89087349  0.55368712     0.25790
H980        H  0.61295847  0.53142906  0.35165923     0.31720
H981        H  0.53683798  0.60866724  0.37862326     0.37630
H982        H  0.46412652  0.89130665  0.62788171     0.32090
H983        H  0.38297498  0.96977994  0.64872357     0.30970
H984        H  0.38196157  0.52478505  0.60561666     0.32650
H985        H  0.46175536  0.60752949  0.45379084     0.31620
H986        H  0.56806288  0.92419370  0.63118635     0.35620
H987        H  0.59022075  0.96509057  0.65282814     0.28350
H988        H  0.38104896  0.50132164  0.36842528     0.32580
H989        H  0.45366329  0.60601297  0.36977186     0.35430
H990        H  0.38668228  0.95036562  0.62384415     0.28040
H991        H  0.62599877  0.96564214  0.61667844     0.40920
H992        H  0.57968698  0.95364320  0.42166395     0.30970
H993        H  0.55129585  0.91581985  0.50240348     0.38590
H994        H  0.44557677  0.58183472  0.50200358     0.30440
H995        H  0.58167503  0.55309714  0.35618882     0.30500
H996        H  0.40070061  0.53102509  0.35428573     0.30770
Zr997      Zr  0.18834330  0.74261875  0.44810814     2.17510
O998        O  0.13530225  0.76635107  0.38249798    -0.51590
O999        O  0.16451844  0.69569806  0.46739457    -0.74790
O1000       O  0.21077034  0.74388546  0.37112153    -0.81580
O1001       O  0.11360228  0.74959893  0.54081600    -0.83320
O1002       O  0.28402944  0.74984104  0.36370444    -0.78950
O1003       O  0.11381972  0.74501316  0.47127409    -0.90580
O1004       O  0.20609563  0.66443963  0.53021904    -0.76550
O1005       O  0.25452827  0.71685138  0.46728842    -0.86040
O1006       O  0.18992531  0.71597926  0.53530128    -0.85730
O1007       O  0.24456550  0.77743111  0.41534670    -0.72480
O1008       O  0.18499436  0.77601069  0.47892685    -0.84620
Zr1009     Zr  0.31029523  0.75762546  0.55546795     2.26420
Zr1010     Zr  0.31111303  0.75120854  0.43715036     2.06270
Zr1011     Zr  0.18821521  0.74896885  0.56648187     2.10050
Zr1012     Zr  0.25618052  0.69058341  0.55443777     1.78760
O1013       O  0.14769310  0.78444643  0.57720184    -0.93420
O1014       O  0.30219201  0.66026050  0.53531832    -0.41230
O1015       O  0.25437721  0.72283694  0.58777861    -0.77860
O1016       O  0.31406296  0.72404035  0.52483680    -0.96550
O1017       O  0.30871962  0.78422482  0.46827369    -0.89850
O1018       O  0.24421581  0.78338807  0.53561596    -0.92700
C1019       C  0.17530467  0.67065562  0.49864365     1.01060
C1020       C  0.09412176  0.74758866  0.50573962     1.13990
C1021       C  0.24665421  0.74689382  0.34792437     1.04770
O1022       O  0.35307050  0.71468265  0.43123338    -0.94850
O1023       O  0.38593098  0.75435151  0.46067448    -0.90600
O1024       O  0.38502266  0.75797779  0.53119099    -0.83740
C1025       C  0.40507220  0.75649405  0.49603032     1.11410
O1026       O  0.19201919  0.83615185  0.38134874    -0.96830
Zr1027     Zr  0.24249342  0.80969346  0.44845949     1.88940
O1028       O  0.33513239  0.80447381  0.53518118    -0.73470
O1029       O  0.34622624  0.78905690  0.36637787    -0.52740
O1030       O  0.28295070  0.83945860  0.37410492    -0.97410
O1031       O  0.19548724  0.84102098  0.46411084    -0.54630
O1032       O  0.29301596  0.83560044  0.47270830    -0.73990
C1033       C  0.32395041  0.82948845  0.50412958     0.98350
O1034       O  0.35736401  0.72996702  0.62559695    -0.62810
O1035       O  0.15555649  0.70976611  0.63734426    -0.57610
O1036       O  0.28830270  0.75903518  0.63040211    -0.94300
O1037       O  0.21591404  0.74923539  0.64020134    -0.92720
O1038       O  0.21767456  0.66015890  0.62982714    -0.93080
O1039       O  0.30603453  0.66249655  0.62092166    -0.91860
C1040       C  0.25259136  0.75407678  0.65470880     1.17200
H1041       H  0.16531821  0.70351186  0.54751888     0.33140
H1042       H  0.34121790  0.71391100  0.53459234     0.43990
H1043       H  0.24292029  0.79555058  0.55067228     0.37520
H1044       H  0.24180736  0.78796703  0.38003374     0.34000
H1045       H  0.29061768  0.64117312  0.55579766     0.25790
H1046       H  0.36143479  0.77969872  0.34971024     0.31720
H1047       H  0.28422147  0.85796334  0.37335273     0.37630
H1048       H  0.21823358  0.64146389  0.63129004     0.32090
H1049       H  0.13789499  0.71849682  0.65339450     0.30970
H1050       H  0.13025479  0.77378590  0.60731788     0.32650
H1051       H  0.21161723  0.85891663  0.45107447     0.31620
H1052       H  0.31652328  0.67541710  0.63318244     0.35620
H1053       H  0.33758346  0.71756719  0.65228639     0.28350
H1054       H  0.12780614  0.75279588  0.37044763     0.32580
H1055       H  0.20041725  0.85604887  0.36825185     0.35430
H1056       H  0.13402488  0.70171315  0.62356398     0.28040
H1057       H  0.37286152  0.71695831  0.61660035     0.40920
H1058       H  0.33127114  0.70327074  0.42489853     0.30970
H1059       H  0.29421029  0.66466111  0.50127807     0.38590
H1060       H  0.19572872  0.83371710  0.50020165     0.30440
H1061       H  0.32216326  0.79951952  0.34384213     0.30500
H1062       H  0.15154992  0.78145714  0.35523663     0.30770
Zr1063     Zr  0.68810732  0.74239885  0.44555625     2.17510
O1064       O  0.63870355  0.76580270  0.37606912    -0.51590
O1065       O  0.66171040  0.69568053  0.46724721    -0.74790
O1066       O  0.71156988  0.74136403  0.37045368    -0.81580
O1067       O  0.61378905  0.75415528  0.53298500    -0.83320
O1068       O  0.78472337  0.74663109  0.36434140    -0.78950
O1069       O  0.61343966  0.74872332  0.46409757    -0.90580
O1070       O  0.70376033  0.66449367  0.52962611    -0.76550
O1071       O  0.75290866  0.71514940  0.46752379    -0.86040
O1072       O  0.68813265  0.71687239  0.53311837    -0.85730
O1073       O  0.74588203  0.77602642  0.41294593    -0.72480
O1074       O  0.68642540  0.77675430  0.47446246    -0.84620
Zr1075     Zr  0.81121355  0.75654994  0.55320432     2.26420
Zr1076     Zr  0.81087051  0.74839598  0.43709443     2.06270
Zr1077     Zr  0.68811031  0.75088818  0.56219055     2.10050
Zr1078     Zr  0.75322964  0.69014287  0.55491794     1.78760
O1079       O  0.65460991  0.78977958  0.56893334    -0.93420
O1080       O  0.79903365  0.65710759  0.54281316    -0.41230
O1081       O  0.75302627  0.72338645  0.58576861    -0.77860
O1082       O  0.81300788  0.72203832  0.52483876    -0.96550
O1083       O  0.81058265  0.78233207  0.46599601    -0.89850
O1084       O  0.74635629  0.78372327  0.53166205    -0.92700
C1085       C  0.67293678  0.67068383  0.49818817     1.01060
C1086       C  0.59415887  0.75279543  0.49722540     1.13990
C1087       C  0.74773451  0.74392477  0.34780618     1.04770
O1088       O  0.85222969  0.71111395  0.43315099    -0.94850
O1089       O  0.88571306  0.74995502  0.46022793    -0.90600
O1090       O  0.88572849  0.75653653  0.52774659    -0.83740
C1091       C  0.90532217  0.75342055  0.49378303     1.11410
O1092       O  0.69297674  0.83570531  0.37987943    -0.96830
Zr1093     Zr  0.74565418  0.80912006  0.44433564     1.88940
O1094       O  0.83788627  0.80290676  0.53262402    -0.73470
O1095       O  0.84640518  0.78554869  0.36570110    -0.52740
O1096       O  0.78433362  0.83733630  0.36781206    -0.97410
O1097       O  0.70509345  0.84302749  0.45985020    -0.54630
O1098       O  0.80025926  0.83396654  0.46579248    -0.73990
C1099       C  0.82983788  0.82777255  0.49874558     0.98350
O1100       O  0.85905524  0.72920007  0.62282466    -0.62810
O1101       O  0.64691450  0.71596723  0.63128150    -0.57610
O1102       O  0.78955511  0.75762178  0.62837304    -0.94300
O1103       O  0.71710945  0.74776525  0.63833595    -0.92720
O1104       O  0.71116362  0.66204820  0.62880060    -0.93080
O1105       O  0.80017818  0.66183971  0.62437918    -0.91860
C1106       C  0.75412494  0.75194804  0.65324035     1.17200
H1107       H  0.66286535  0.70497891  0.54519559     0.33140
H1108       H  0.83965680  0.71137645  0.53526017     0.43990
H1109       H  0.74597851  0.79609350  0.54632529     0.37520
H1110       H  0.74368255  0.78621379  0.37754577     0.34000
H1111       H  0.78448866  0.63876664  0.56145403     0.25790
H1112       H  0.85911907  0.77605747  0.34787015     0.31720
H1113       H  0.78778915  0.85589875  0.36646521     0.37630
H1114       H  0.71084739  0.64304527  0.63155498     0.32090
H1115       H  0.62477408  0.72684852  0.63846986     0.30970
H1116       H  0.63701133  0.78085518  0.59933924     0.32650
H1117       H  0.72018000  0.86106973  0.44025255     0.31620
H1118       H  0.81225647  0.67523168  0.63476379     0.35620
H1119       H  0.83961917  0.71640515  0.64952072     0.28350
H1120       H  0.63087997  0.75175575  0.36525365     0.32580
H1121       H  0.70335131  0.85531887  0.36399040     0.35430
H1122       H  0.63011666  0.70553294  0.61769006     0.28040
H1123       H  0.87526572  0.71656052  0.61351482     0.40920
H1124       H  0.83013530  0.69715983  0.43587704     0.30970
H1125       H  0.79474276  0.66180947  0.50793450     0.38590
H1126       H  0.71137773  0.83835886  0.49438669     0.30440
H1127       H  0.82239938  0.79700728  0.34429255     0.30500
H1128       H  0.65619280  0.78009785  0.34895437     0.30770
Zr1129     Zr  0.93796960  0.50980786  0.05078279     2.17510
O1130       O  0.88538722  0.98724477  0.11716375    -0.51590
O1131       O  0.91531192  0.55705076  0.03070907    -0.74790
O1132       O  0.96161940  0.50916330  0.12694539    -0.81580
O1133       O  0.86110461  0.50291570  0.95954033    -0.83320
O1134       O  0.03512645  0.50531475  0.13133662    -0.78950
O1135       O  0.86263033  0.50609861  0.03081204    -0.90580
O1136       O  0.95518558  0.58792101  0.96570197    -0.76550
O1137       O  0.00331999  0.53652095  0.02833379    -0.86040
O1138       O  0.93765489  0.53517242  0.96331358    -0.85730
O1139       O  0.99537247  0.97573608  0.08366976    -0.72480
O1140       O  0.93480213  0.97507855  0.02288796    -0.84620
Zr1141     Zr  0.05917244  0.99418822  0.94340673     2.26420
Zr1142     Zr  0.06092080  0.50280891  0.05897534     2.06270
Zr1143     Zr  0.93580533  0.00079231  0.93518190     2.10050
Zr1144     Zr  0.00321419  0.56132445  0.94088762     1.78760
O1145       O  0.89808892  0.96096537  0.93607133    -0.93420
O1146       O  0.05249930  0.59301670  0.95252521    -0.41230
O1147       O  0.00129390  0.52770455  0.91084808    -0.77860
O1148       O  0.06241106  0.52890464  0.97119985    -0.96550
O1149       O  0.05932985  0.96859854  0.03065651    -0.89850
O1150       O  0.99373433  0.96762662  0.96574414    -0.92700
C1151       C  0.92596195  0.58191632  0.99873813     1.01060
C1152       C  0.84260449  0.50435285  0.99572057     1.13990
C1153       C  0.99809533  0.50723867  0.14870985     1.04770
O1154       O  0.10327021  0.53944181  0.06396876    -0.94850
O1155       O  0.13551407  0.50049442  0.03491973    -0.90600
O1156       O  0.13484647  0.99559673  0.96542035    -0.83740
C1157       C  0.15470768  0.99807480  0.99998261     1.11410
O1158       O  0.94180103  0.91632187  0.11833873    -0.96830
Zr1159     Zr  0.99387075  0.94234277  0.05299250     1.88940
O1160       O  0.08414606  0.94741844  0.96393678    -0.73470
O1161       O  0.09697966  0.96538040  0.12969634    -0.52740
O1162       O  0.03320198  0.91431549  0.12928634    -0.97410
O1163       O  0.95166638  0.90862883  0.03853636    -0.54630
O1164       O  0.04714778  0.91662613  0.03147751    -0.73990
C1165       C  0.07581437  0.92257186  0.99771781     0.98350
O1166       O  0.10394590  0.52194761  0.87144863    -0.62810
O1167       O  0.89854555  0.53487507  0.86146284    -0.57610
O1168       O  0.03607437  0.99132066  0.87047800    -0.94300
O1169       O  0.96358678  0.00032103  0.86162340    -0.92720
O1170       O  0.96063026  0.59001330  0.86758031    -0.93080
O1171       O  0.04793435  0.58950458  0.86934714    -0.91860
C1172       C  0.00017923  0.99565897  0.84666006     1.17200
H1173       H  0.91272554  0.54740366  0.95122081     0.33140
H1174       H  0.08920029  0.53935168  0.96058080     0.43990
H1175       H  0.99267613  0.95506713  0.95148680     0.37520
H1176       H  0.99339228  0.96562484  0.11908339     0.34000
H1177       H  0.03743736  0.61134343  0.93731263     0.25790
H1178       H  0.11384380  0.97509151  0.14462926     0.31720
H1179       H  0.03665913  0.89572351  0.13074939     0.37630
H1180       H  0.96081780  0.60896153  0.86506889     0.32090
H1181       H  0.87026510  0.52615990  0.86134501     0.30970
H1182       H  0.87331935  0.96928509  0.91320387     0.32650
H1183       H  0.96652793  0.89047272  0.05806670     0.31620
H1184       H  0.07224282  0.57705813  0.87117017     0.35620
H1185       H  0.08346177  0.53231689  0.84400708     0.28350
H1186       H  0.87886398  0.00108223  0.12886901     0.32580
H1187       H  0.95192253  0.89664212  0.13432714     0.35430
H1188       H  0.89117419  0.55054800  0.86828757     0.28040
H1189       H  0.11598640  0.53677078  0.87816902     0.40920
H1190       H  0.08136212  0.55221054  0.06619450     0.30970
H1191       H  0.05163680  0.58696024  0.98822450     0.38590
H1192       H  0.95729111  0.91314361  0.00395971     0.30440
H1193       H  0.07344278  0.95563934  0.15355021     0.30500
H1194       H  0.90151307  0.97202608  0.14445864     0.30770
Zr1195     Zr  0.43792396  0.50736613  0.05651062     2.17510
O1196       O  0.38162808  0.98938022  0.11941888    -0.51590
O1197       O  0.41491981  0.55443054  0.03725849    -0.74790
O1198       O  0.46173625  0.50353129  0.13502910    -0.81580
O1199       O  0.36301143  0.99919535  0.96530581    -0.83320
O1200       O  0.53550212  0.50160600  0.13837520    -0.78950
O1201       O  0.36312588  0.50098671  0.03750705    -0.90580
O1202       O  0.45718906  0.58604693  0.97603266    -0.76550
O1203       O  0.50364777  0.53368296  0.03650879    -0.86040
O1204       O  0.43869848  0.53426026  0.96935371    -0.85730
O1205       O  0.49505871  0.97293434  0.08846532    -0.72480
O1206       O  0.43532390  0.97367728  0.02635577    -0.84620
Zr1207     Zr  0.56089493  0.99383237  0.94743219     2.26420
Zr1208     Zr  0.56105553  0.49974030  0.06573793     2.06270
Zr1209     Zr  0.43760365  0.00086619  0.93901293     2.10050
Zr1210     Zr  0.50473159  0.56004375  0.94933679     1.78760
O1211       O  0.40123755  0.96205386  0.93471329    -0.93420
O1212       O  0.55329578  0.59043406  0.96546253    -0.41230
O1213       O  0.50324934  0.52769450  0.91638108    -0.77860
O1214       O  0.56357853  0.52728832  0.97821815    -0.96550
O1215       O  0.55998765  0.96678236  0.03456694    -0.89850
O1216       O  0.49523675  0.96752044  0.96803300    -0.92700
C1217       C  0.42651404  0.57955863  0.00763222     1.01060
C1218       C  0.34358143  0.49893869  0.00239046     1.13990
C1219       C  0.49819492  0.50212839  0.15642297     1.04770
O1220       O  0.60346382  0.53547288  0.07370596    -0.94850
O1221       O  0.63621853  0.49831388  0.04278431    -0.90600
O1222       O  0.63618347  0.99436301  0.97221725    -0.83740
C1223       C  0.65551938  0.99622946  0.00765420     1.11410
O1224       O  0.44400317  0.91336998  0.12166159    -0.96830
Zr1225     Zr  0.49418672  0.94080259  0.05503871     1.88940
O1226       O  0.58450643  0.94712288  0.96535219    -0.73470
O1227       O  0.59484040  0.96087521  0.13628047    -0.52740
O1228       O  0.53541296  0.91160811  0.12925472    -0.97410
O1229       O  0.44947791  0.90890108  0.03829849    -0.54630
O1230       O  0.54500130  0.91553328  0.02986656    -0.73990
C1231       C  0.57479060  0.92199211  0.99716909     0.98350
O1232       O  0.60865776  0.52081139  0.87766927    -0.62810
O1233       O  0.39892973  0.53677950  0.86856947    -0.57610
O1234       O  0.53702448  0.99375395  0.87181731    -0.94300
O1235       O  0.46435609  0.00182663  0.86442553    -0.92720
O1236       O  0.46321482  0.59017996  0.87603019    -0.93080
O1237       O  0.55159813  0.58864055  0.88017832    -0.91860
C1238       C  0.50079016  0.99786660  0.84845153     1.17200
H1239       H  0.41375949  0.54650818  0.95746394     0.33140
H1240       H  0.59044834  0.53770839  0.96847443     0.43990
H1241       H  0.49406118  0.95552034  0.95265273     0.37520
H1242       H  0.49282644  0.96218723  0.12378105     0.34000
H1243       H  0.53944126  0.60914112  0.94901237     0.25790
H1244       H  0.61192290  0.96980205  0.15245816     0.31720
H1245       H  0.53809558  0.89327803  0.12952357     0.37630
H1246       H  0.46407688  0.60888149  0.87452763     0.32090
H1247       H  0.37631305  0.52644172  0.86071075     0.30970
H1248       H  0.37436072  0.97024715  0.91560790     0.32650
H1249       H  0.46435227  0.89055667  0.05544685     0.31620
H1250       H  0.56739527  0.57499778  0.87302180     0.35620
H1251       H  0.58922888  0.53358120  0.85084945     0.28350
H1252       H  0.38066821  0.00194292  0.13468353     0.32580
H1253       H  0.45386518  0.89369843  0.13537296     0.35430
H1254       H  0.38257550  0.54763768  0.88163662     0.28040
H1255       H  0.62500042  0.53353473  0.88668356     0.40920
H1256       H  0.58179610  0.54717824  0.07944503     0.30970
H1257       H  0.54995868  0.58440001  0.00099829     0.38590
H1258       H  0.45357867  0.91464671  0.00296142     0.30440
H1259       H  0.57070183  0.95129818  0.15931912     0.30500
H1260       H  0.39272366  0.97126079  0.14521901     0.30770
Zr1261     Zr  0.18753875  0.75738830  0.05463293     2.17510
O1262       O  0.13411719  0.73361644  0.11956759    -0.51590
O1263       O  0.16492255  0.80421047  0.03730340    -0.74790
O1264       O  0.20982653  0.75545004  0.13237847    -0.81580
O1265       O  0.11353678  0.74942386  0.96197312    -0.83320
O1266       O  0.28379453  0.75465731  0.13595806    -0.78950
O1267       O  0.11298258  0.75487762  0.03067474    -0.90580
O1268       O  0.20296456  0.83543300  0.97126934    -0.76550
O1269       O  0.25315195  0.78372828  0.03503118    -0.86040
O1270       O  0.18887475  0.78380717  0.96729128    -0.85730
O1271       O  0.24458092  0.72314306  0.08772752    -0.72480
O1272       O  0.18522246  0.72387750  0.02398691    -0.84620
Zr1273     Zr  0.31078554  0.74331701  0.94782762     2.26420
Zr1274     Zr  0.31055626  0.74991819  0.06575330     2.06270
Zr1275     Zr  0.18834091  0.75062896  0.93634434     2.10050
Zr1276     Zr  0.25455753  0.80980592  0.94789166     1.78760
O1277       O  0.14751831  0.71523869  0.92566083    -0.93420
O1278       O  0.29873811  0.84076980  0.96732245    -0.41230
O1279       O  0.25385897  0.77742704  0.91488064    -0.77860
O1280       O  0.31343257  0.77705080  0.97808065    -0.96550
O1281       O  0.30922685  0.71674890  0.03501450    -0.89850
O1282       O  0.24538011  0.71689808  0.96760553    -0.92700
C1283       C  0.17418309  0.82924047  0.00492418     1.01060
C1284       C  0.09361898  0.75173075  0.99650218     1.13990
C1285       C  0.24608462  0.75525116  0.15334396     1.04770
O1286       O  0.35523858  0.78448887  0.07458187    -0.94850
O1287       O  0.38572598  0.74758410  0.04262362    -0.90600
O1288       O  0.38507983  0.74173501  0.97411417    -0.83740
C1289       C  0.40483917  0.74425222  0.00853882     1.11410
O1290       O  0.19362780  0.66399237  0.12217625    -0.96830
Zr1291     Zr  0.24347786  0.69077202  0.05477403     1.88940
O1292       O  0.33511558  0.69654762  0.96687932    -0.73470
O1293       O  0.34153610  0.71066498  0.13797658    -0.52740
O1294       O  0.28433360  0.66089910  0.12888935    -0.97410
O1295       O  0.19663036  0.65948950  0.03878039    -0.54630
O1296       O  0.29406160  0.66519399  0.03013096    -0.73990
C1297       C  0.32443472  0.67149827  0.99814504     0.98350
O1298       O  0.36016550  0.77079893  0.88003671    -0.62810
O1299       O  0.15613271  0.78985847  0.86498548    -0.57610
O1300       O  0.29010719  0.74431149  0.87068142    -0.94300
O1301       O  0.21635268  0.74821518  0.86440277    -0.92720
O1302       O  0.21658238  0.84005296  0.87184451    -0.93080
O1303       O  0.30474016  0.83797705  0.88204919    -0.91860
C1304       C  0.25403712  0.74632023  0.84822750     1.17200
H1305       H  0.16397686  0.79606784  0.95509551     0.33140
H1306       H  0.34039188  0.78737535  0.96837290     0.43990
H1307       H  0.24466566  0.70467819  0.95264702     0.37520
H1308       H  0.24192222  0.71269814  0.12305129     0.34000
H1309       H  0.28739881  0.85978639  0.94567322     0.25790
H1310       H  0.35961635  0.71946203  0.15362422     0.31720
H1311       H  0.28551801  0.64241851  0.12953840     0.37630
H1312       H  0.21634722  0.85870487  0.87056867     0.32090
H1313       H  0.13961719  0.78114704  0.84804751     0.30970
H1314       H  0.13146811  0.72579876  0.89438903     0.32650
H1315       H  0.21333098  0.64185259  0.05052317     0.31620
H1316       H  0.31620050  0.82493688  0.87053599     0.35620
H1317       H  0.34137755  0.78382226  0.85274476     0.28350
H1318       H  0.12673054  0.74703801  0.13194062     0.32580
H1319       H  0.20175284  0.64409897  0.13449982     0.35430
H1320       H  0.13356875  0.79744097  0.87843045     0.28040
H1321       H  0.37586236  0.78324845  0.89021143     0.40920
H1322       H  0.33506107  0.80001096  0.06872247     0.30970
H1323       H  0.28949804  0.83686088  0.00074167     0.38590
H1324       H  0.19588867  0.66730199  0.00258710     0.30440
H1325       H  0.31683484  0.70227129  0.16080450     0.30500
H1326       H  0.15018112  0.71831594  0.14679436     0.30770
Zr1327     Zr  0.68655042  0.75830590  0.05026365     2.17510
O1328       O  0.63267071  0.73541524  0.11506201    -0.51590
O1329       O  0.66148230  0.80530058  0.02908325    -0.74790
O1330       O  0.70819188  0.75662566  0.12798335    -0.81580
O1331       O  0.61185340  0.74976992  0.95919824    -0.83320
O1332       O  0.78173604  0.75569172  0.13095613    -0.78950
O1333       O  0.61232390  0.75402039  0.02927231    -0.90580
O1334       O  0.69940826  0.83630570  0.96248927    -0.76550
O1335       O  0.75106734  0.78569885  0.02870631    -0.86040
O1336       O  0.68701698  0.78360299  0.96275119    -0.85730
O1337       O  0.74432643  0.72470491  0.08366873    -0.72480
O1338       O  0.68497410  0.72367138  0.02205237    -0.84620
Zr1339     Zr  0.81036380  0.74383079  0.94401368     2.26420
Zr1340     Zr  0.80909527  0.75248977  0.05987974     2.06270
Zr1341     Zr  0.68694318  0.74936134  0.93430795     2.10050
Zr1342     Zr  0.75201202  0.81040296  0.94131634     1.78760
O1343       O  0.64748783  0.71161098  0.92968461    -0.93420
O1344       O  0.79484762  0.84266623  0.95877224    -0.41230
O1345       O  0.75191704  0.77685433  0.91101653    -0.77860
O1346       O  0.81182370  0.77849897  0.97210766    -0.96550
O1347       O  0.80927747  0.71833074  0.03132278    -0.89850
O1348       O  0.74547487  0.71664716  0.96544869    -0.92700
C1349       C  0.66998505  0.83018993  0.99539782     1.01060
C1350       C  0.59264939  0.75149120  0.99480823     1.13990
C1351       C  0.74439277  0.75601204  0.14929480     1.04770
O1352       O  0.85018035  0.78965940  0.06466278    -0.94850
O1353       O  0.88421668  0.75054717  0.03791447    -0.90600
O1354       O  0.88484553  0.74277655  0.97163969    -0.83740
C1355       C  0.90419230  0.74632267  0.00540188     1.11410
O1356       O  0.69690806  0.66420494  0.12228937    -0.96830
Zr1357     Zr  0.74445297  0.69143067  0.05272345     1.88940
O1358       O  0.83397429  0.69713925  0.96222193    -0.73470
O1359       O  0.84353541  0.71537930  0.13243739    -0.52740
O1360       O  0.78731354  0.66294866  0.12598806    -0.97410
O1361       O  0.69759525  0.65918296  0.03939552    -0.54630
O1362       O  0.79531329  0.66590188  0.02819696    -0.73990
C1363       C  0.82427836  0.67220699  0.99471336     0.98350
O1364       O  0.86031161  0.77055665  0.87636588    -0.62810
O1365       O  0.65414643  0.78593490  0.85987238    -0.57610
O1366       O  0.78853645  0.74514546  0.86674638    -0.94300
O1367       O  0.71452648  0.74701052  0.86232628    -0.92720
O1368       O  0.71418863  0.83927697  0.86441737    -0.93080
O1369       O  0.80204526  0.83816129  0.87498856    -0.91860
C1370       C  0.75225076  0.74635000  0.84508292     1.17200
H1371       H  0.66175971  0.79550592  0.95032462     0.33140
H1372       H  0.83852038  0.78908955  0.96191966     0.43990
H1373       H  0.74493180  0.70412377  0.95109344     0.37520
H1374       H  0.74206546  0.71452174  0.11905194     0.34000
H1375       H  0.78278274  0.86140882  0.93671275     0.25790
H1376       H  0.85602269  0.72497134  0.15022291     0.31720
H1377       H  0.78914875  0.64431379  0.12731798     0.37630
H1378       H  0.71398897  0.85829053  0.86161943     0.32090
H1379       H  0.62750215  0.77733248  0.85479687     0.30970
H1380       H  0.62925091  0.72107216  0.89980086     0.32650
H1381       H  0.71525248  0.64203396  0.04954070     0.31620
H1382       H  0.81169527  0.82530991  0.86221762     0.35620
H1383       H  0.84182747  0.78377548  0.84895382     0.28350
H1384       H  0.62453017  0.74942016  0.12584367     0.32580
H1385       H  0.70550860  0.64440153  0.13444819     0.35430
H1386       H  0.64357316  0.80013395  0.86909499     0.28040
H1387       H  0.87657951  0.78285045  0.88644725     0.40920
H1388       H  0.82788484  0.80231368  0.06661800     0.30970
H1389       H  0.78571205  0.83901654  0.99208768     0.38590
H1390       H  0.69486483  0.66719163  0.00328683     0.30440
H1391       H  0.81920056  0.70418422  0.15344730     0.30500
H1392       H  0.64849291  0.72057282  0.14324516     0.30770
C1393       C  0.47308878  0.75500097  0.96051763    -0.12530
C1394       C  0.45299574  0.74452962  0.00678402     0.04480
C1395       C  0.47923119  0.73624439  0.04908702    -0.07810
C1396       C  0.52448383  0.73930666  0.04381458    -0.08560
C1397       C  0.54451617  0.74997670  0.99744695    -0.03110
C1398       C  0.51820963  0.75820957  0.95526057     0.03710
N1399       N  0.53622473  0.77166657  0.90666766     0.66210
H1400       H  0.45339641  0.76210608  0.92761210     0.15110
H1401       H  0.54429015  0.73237949  0.07660013     0.14820
N1402       N  0.46093698  0.72351515  0.09763817     0.73920
O1403       O  0.52276082  0.76523596  0.87447651    -0.39530
O1404       O  0.55926078  0.79331104  0.89355666    -0.39470
O1405       O  0.43420227  0.70362868  0.11015987    -0.40180
O1406       O  0.47643598  0.72901717  0.13016564    -0.40240
C1407       C  0.97478560  0.74386824  0.96769261    -0.12530
C1408       C  0.95276979  0.74630578  0.00555776     0.04480
C1409       C  0.97778766  0.75033988  0.04049394    -0.07810
C1410       C  0.02310397  0.75255968  0.03588152    -0.08560
C1411       C  0.04508892  0.75040944  0.99771980    -0.03110
C1412       C  0.02009316  0.74606290  0.96310910     0.03710
N1413       N  0.03959292  0.74448333  0.92223161     0.66210
H1414       H  0.95668075  0.74096432  0.94018757     0.15110
H1415       H  0.04122460  0.75551001  0.06332712     0.14820
N1416       N  0.95826703  0.75162182  0.08164690     0.73920
O1417       O  0.03273611  0.72332832  0.91599306    -0.39530
O1418       O  0.05498860  0.76636137  0.88722573    -0.39470
O1419       O  0.94066610  0.73000276  0.11503434    -0.40180
O1420       O  0.96667022  0.77195455  0.08977957    -0.40240
C1421       C  0.39536408  0.64963129  0.99945090    -0.12530
C1422       C  0.34982856  0.64821043  0.99854686     0.04480
C1423       C  0.32972677  0.62371710  0.00241847    -0.07810
C1424       C  0.35582974  0.60117350  0.00773211    -0.08560
C1425       C  0.40134995  0.60264756  0.00830683    -0.03110
C1426       C  0.42147436  0.62698579  0.00509113     0.03710
N1427       N  0.46782107  0.62849520  0.01010690     0.66210
H1428       H  0.41059994  0.66807496  0.99805876     0.15110
H1429       H  0.34052551  0.58274869  0.00912462     0.14820
N1430       N  0.28330878  0.62185110  0.99863456     0.73920
O1431       O  0.48686801  0.65189940  0.99041122    -0.39530
O1432       O  0.48881431  0.60712552  0.03968832    -0.39470
O1433       O  0.26173774  0.64291163  0.96907771    -0.40180
O1434       O  0.26459411  0.59836655  0.01979885    -0.40240
C1435       C  0.57747162  0.87423705  0.00453831    -0.12530
C1436       C  0.59969329  0.89873420  0.99642471     0.04480
C1437       C  0.64494925  0.90066235  0.98700429    -0.07810
C1438       C  0.66653580  0.87821287  0.98558983    -0.08560
C1439       C  0.64445815  0.85363665  0.99427847    -0.03110
C1440       C  0.59907471  0.85182596  0.00272899     0.03710
N1441       N  0.57415152  0.82828986  0.00678744     0.66210
H1442       H  0.54264846  0.87299208  0.01051129     0.15110
H1443       H  0.70137807  0.87947283  0.97968707     0.14820
N1444       N  0.66996987  0.92435672  0.98179062     0.73920
O1445       O  0.54019760  0.82086992  0.03279944    -0.39530
O1446       O  0.58217956  0.81758206  0.97893355    -0.39470
O1447       O  0.66349307  0.93470184  0.01043927    -0.40180
O1448       O  0.70278547  0.93218110  0.95396656    -0.40240
C1449       C  0.77567826  0.97850474  0.03346078    -0.12530
C1450       C  0.79475056  0.50327612  0.99787100     0.04480
C1451       C  0.76789493  0.52604492  0.96647212    -0.07810
C1452       C  0.72247251  0.52250270  0.97089589    -0.08560
C1453       C  0.70342730  0.99767781  0.00634494    -0.03110
C1454       C  0.73033854  0.97534998  0.03870586     0.03710
N1455       N  0.71287950  0.94925587  0.07600050     0.66210
H1456       H  0.79658675  0.96145347  0.05772356     0.15110
H1457       H  0.70135962  0.53946278  0.94679177     0.14820
N1458       N  0.78527833  0.55295454  0.93144207     0.73920
O1459       O  0.73501058  0.92704893  0.09143514    -0.39530
O1460       O  0.67672714  0.94835780  0.09598774    -0.39470
O1461       O  0.82550360  0.55672394  0.92307433    -0.40180
O1462       O  0.76016772  0.57363214  0.90937902    -0.40240
C1463       C  0.22525901  0.98826415  0.04509239    -0.12530
C1464       C  0.20304755  0.99796916  0.00012659     0.04480
C1465       C  0.22754974  0.50689630  0.95657401    -0.07810
C1466       C  0.27297389  0.50625012  0.95866351    -0.08560
C1467       C  0.29530617  0.49690168  0.00348043    -0.03110
C1468       C  0.27086267  0.98711259  0.04742524     0.03710
N1469       N  0.29143358  0.97442926  0.09477559     0.66210
H1470       H  0.20699333  0.98052496  0.07903957     0.15110
H1471       H  0.29086352  0.51413697  0.92444031     0.14820
N1472       N  0.20709934  0.51864327  0.90942223     0.73920
O1473       O  0.27768064  0.97958716  0.12835447    -0.39530
O1474       O  0.31781913  0.95449027  0.10562464    -0.39470
O1475       O  0.19494966  0.54386530  0.88970024    -0.40180
O1476       O  0.21030559  0.00630602  0.88342347    -0.40240
C1477       C  0.85942994  0.61002191  0.97767679    -0.12530
C1478       C  0.90124308  0.60529547  0.99819994     0.04480
C1479       C  0.91786920  0.62282260  0.01704347    -0.07810
C1480       C  0.89132634  0.64450134  0.01503945    -0.08560
C1481       C  0.84940435  0.64908865  0.99481857    -0.03110
C1482       C  0.83307093  0.63182501  0.97534347     0.03710
N1483       N  0.79095636  0.63634292  0.95200308     0.66210
H1484       H  0.84728581  0.59646652  0.96327658     0.15110
H1485       H  0.90340798  0.65812047  0.02933019     0.14820
N1486       N  0.96052139  0.61882466  0.03913470     0.73920
O1487       O  0.78311462  0.62709210  0.92194561    -0.39530
O1488       O  0.76075824  0.64840691  0.96253941    -0.39470
O1489       O  0.99002649  0.60589660  0.02956797    -0.40180
O1490       O  0.96967923  0.62960231  0.06664484    -0.40240
C1491       C  0.11395829  0.87709167  0.04451019    -0.12530
C1492       C  0.10150965  0.89909377  0.99876495     0.04480
C1493       C  0.11322781  0.89783316  0.95543850    -0.07810
C1494       C  0.13655568  0.87473486  0.95883342    -0.08560
C1495       C  0.14891783  0.85268907  0.00453105    -0.03110
C1496       C  0.13747373  0.85399244  0.04792916     0.03710
N1497       N  0.15106602  0.83291323  0.09550443     0.66210
H1498       H  0.10557273  0.87791361  0.07802608     0.15110
H1499       H  0.14488105  0.87396304  0.92525377     0.14820
N1500       N  0.10026931  0.91911600  0.90781179     0.73920
O1501       O  0.17239318  0.83996960  0.12303017    -0.39530
O1502       O  0.13380302  0.80897360  0.11396340    -0.39470
O1503       O  0.11993525  0.94229004  0.88857670    -0.40180
O1504       O  0.07689130  0.91259627  0.88098184    -0.40240
C1505       C  0.76884408  0.77295394  0.70818146    -0.12530
C1506       C  0.75607625  0.74955388  0.70300585     0.04480
C1507       C  0.74333715  0.72472423  0.74502344    -0.07810
C1508       C  0.74191998  0.72446682  0.79092629    -0.08560
C1509       C  0.75390418  0.74803127  0.79592517    -0.03110
C1510       C  0.76749551  0.77270239  0.75410277     0.03710
N1511       N  0.77857730  0.79781128  0.75709711     0.66210
H1512       H  0.77821656  0.79193482  0.67574790     0.15110
H1513       H  0.73233113  0.70553879  0.82334354     0.14820
N1514       N  0.73318775  0.69949133  0.74208670     0.73920
O1515       O  0.80355216  0.81575139  0.72555217    -0.39530
O1516       O  0.76025361  0.80359149  0.78794688    -0.39470
O1517       O  0.75246574  0.69382937  0.71159524    -0.40180
O1518       O  0.70865893  0.68122604  0.77370725    -0.40240
C1519       C  0.70752464  0.75249332  0.27124415    -0.12530
C1520       C  0.74657263  0.74521367  0.29827255     0.04480
C1521       C  0.78451779  0.74193591  0.27544810    -0.07810
C1522       C  0.78277978  0.74668575  0.22670849    -0.08560
C1523       C  0.74390143  0.75411500  0.19938008    -0.03110
C1524       C  0.70574845  0.75726088  0.22223127     0.03710
N1525       N  0.66534344  0.76628624  0.19613850     0.66210
H1526       H  0.67829133  0.75571195  0.28755982     0.15110
H1527       H  0.81226263  0.74344655  0.21080663     0.14820
N1528       N  0.82481790  0.73260264  0.30159536     0.73920
O1529       O  0.63038358  0.75432128  0.21670130    -0.39530
O1530       O  0.66354176  0.78917358  0.15689451    -0.39470
O1531       O  0.82640623  0.70938121  0.34015768    -0.40180
O1532       O  0.85984707  0.74479903  0.28173195    -0.40240
C1533       C  0.23657523  0.72892423  0.74348068    -0.12530
C1534       C  0.25363710  0.75287424  0.70368479     0.04480
C1535       C  0.27209732  0.77431028  0.71195806    -0.07810
C1536       C  0.27345505  0.77082830  0.76021380    -0.08560
C1537       C  0.25596008  0.74698749  0.79982141    -0.03110
C1538       C  0.23781278  0.72547647  0.79164323     0.03710
N1539       N  0.22178711  0.69983509  0.83152321     0.66210
H1540       H  0.22322725  0.71237812  0.73698991     0.15110
H1541       H  0.28650320  0.78742738  0.76675574     0.14820
N1542       N  0.28725146  0.80018631  0.67202486     0.73920
O1543       O  0.19537101  0.68468373  0.82312936    -0.39530
O1544       O  0.23752777  0.69058002  0.87419888    -0.39470
O1545       O  0.26861467  0.81049837  0.63066135    -0.40180
O1546       O  0.31544488  0.81466733  0.67975100    -0.40240
C1547       C  0.26456881  0.77191471  0.25926700    -0.12530
C1548       C  0.24474397  0.74878024  0.29828161     0.04480
C1549       C  0.22428930  0.72832784  0.28876113    -0.07810
C1550       C  0.22444632  0.73159107  0.24069638    -0.08560
C1551       C  0.24428036  0.75468672  0.20180804    -0.03110
C1552       C  0.26419258  0.77544746  0.21091336     0.03710
N1553       N  0.28294612  0.80042347  0.17185489     0.66210
H1554       H  0.27962940  0.78774029  0.26653405     0.15110
H1555       H  0.20961154  0.71558228  0.23373411     0.14820
N1556       N  0.20586834  0.70328251  0.32743149     0.73920
O1557       O  0.30994088  0.81471660  0.18167093    -0.39530
O1558       O  0.26920220  0.81007039  0.12826061    -0.39470
O1559       O  0.17623091  0.70481205  0.35437578    -0.40180
O1560       O  0.21333307  0.67997390  0.32871034    -0.40240
C1561       C  0.47606854  0.76143631  0.45369642    -0.12530
C1562       C  0.45352374  0.75693919  0.49645409     0.04480
C1563       C  0.47798983  0.75240406  0.53868899    -0.07810
C1564       C  0.52340070  0.75120598  0.53772354    -0.08560
C1565       C  0.54589898  0.75551607  0.49506955    -0.03110
C1566       C  0.52159885  0.76150033  0.45214735     0.03710
N1567       N  0.54233660  0.76952783  0.40585714     0.66210
H1568       H  0.45825330  0.76588575  0.42042746     0.15110
H1569       H  0.54115320  0.74688159  0.57097827     0.14820
N1570       N  0.45771753  0.74876200  0.58316357     0.73920
O1571       O  0.53101381  0.75825857  0.37975346    -0.39530
O1572       O  0.56475658  0.79163487  0.38680689    -0.39470
O1573       O  0.46425786  0.72648629  0.62255004    -0.40180
O1574       O  0.44246227  0.76983310  0.58537877    -0.40240
C1575       C  0.97506756  0.75383548  0.53450434    -0.12530
C1576       C  0.95373105  0.75303628  0.49473790     0.04480
C1577       C  0.97919286  0.75027161  0.45889602    -0.07810
C1578       C  0.02439364  0.74785141  0.46425828    -0.08560
C1579       C  0.04572630  0.74865213  0.50405070    -0.03110
C1580       C  0.02024545  0.75154374  0.53975523     0.03710
N1581       N  0.03909817  0.75142087  0.58243475     0.66210
H1582       H  0.95653964  0.75552907  0.56291708     0.15110
H1583       H  0.04293904  0.74595166  0.43604644     0.14820
N1584       N  0.96026088  0.75063286  0.41603993     0.73920
O1585       O  0.03146595  0.77145263  0.59163269    -0.39530
O1586       O  0.05458953  0.72893439  0.61589651    -0.39470
O1587       O  0.94293811  0.77285194  0.38386680    -0.40180
O1588       O  0.96888763  0.73122192  0.40550697    -0.40240
C1589       C  0.46439443  0.50122924  0.72710666    -0.12530
C1590       C  0.50425378  0.50301332  0.70356664     0.04480
C1591       C  0.54314821  0.00298543  0.72847036    -0.07810
C1592       C  0.54107378  0.00060236  0.77582672    -0.08560
C1593       C  0.50112471  0.99861290  0.79938275    -0.03110
C1594       C  0.46233666  0.49871715  0.77436443     0.03710
N1595       N  0.42047542  0.49495273  0.79691179     0.66210
H1596       H  0.43409249  0.50092441  0.70937115     0.15110
H1597       H  0.57121716  0.00095551  0.79378920     0.14820
N1598       N  0.58509030  0.00561122  0.70654145     0.73920
O1599       O  0.39031492  0.51212136  0.77470299    -0.39530
O1600       O  0.41126277  0.97176978  0.83328359    -0.39470
O1601       O  0.59599718  0.52858904  0.67061833    -0.40180
O1602       O  0.61394189  0.98744511  0.72905819    -0.40240
C1603       C  0.53012159  0.51587543  0.21569556    -0.12530
C1604       C  0.49764286  0.50130766  0.20507183     0.04480
C1605       C  0.46516683  0.98696769  0.24048725    -0.07810
C1606       C  0.46583345  0.98778399  0.28537050    -0.08560
C1607       C  0.49869748  0.00208547  0.29626852    -0.03110
C1608       C  0.53064750  0.51683802  0.26033823     0.03710
N1609       N  0.56212718  0.53429096  0.26716432     0.66210
H1610       H  0.55443535  0.52754946  0.18820793     0.15110
H1611       H  0.44156871  0.97604626  0.31285339     0.14820
N1612       N  0.43318832  0.96998716  0.23301342     0.73920
O1613       O  0.60102547  0.53450264  0.25394417    -0.39530
O1614       O  0.54956566  0.55295559  0.27800980    -0.39470
O1615       O  0.44491584  0.95220838  0.21961302    -0.40180
O1616       O  0.39457544  0.96950031  0.24726364    -0.40240
C1617       C  0.39502640  0.85082467  0.50493059    -0.12530
C1618       C  0.34948897  0.85291763  0.50327758     0.04480
C1619       C  0.32970366  0.87805231  0.49686098    -0.07810
C1620       C  0.35605527  0.90051022  0.49154039    -0.08560
C1621       C  0.40156790  0.89834957  0.49356959    -0.03110
C1622       C  0.42139075  0.87333989  0.49940575     0.03710
N1623       N  0.46785955  0.87094844  0.49726892     0.66210
H1624       H  0.41020678  0.83189222  0.50834113     0.15110
H1625       H  0.34082406  0.91940078  0.48825420     0.14820
N1626       N  0.28323639  0.88065747  0.49828521     0.73920
O1627       O  0.48606703  0.84735720  0.52022066    -0.39530
O1628       O  0.48999084  0.89150136  0.46718300    -0.39470
O1629       O  0.26084167  0.86049652  0.52899439    -0.40180
O1630       O  0.26524128  0.90419782  0.47383968    -0.40240
C1631       C  0.64341012  0.59979609  0.51000781    -0.12530
C1632       C  0.59788898  0.60085721  0.51066214     0.04480
C1633       C  0.57697681  0.62517320  0.50667133    -0.07810
C1634       C  0.60237235  0.64824321  0.50014649    -0.08560
C1635       C  0.64790265  0.64723035  0.49902856    -0.03110
C1636       C  0.66868875  0.62279447  0.50366311     0.03710
N1637       N  0.71508011  0.62153443  0.49942661     0.66210
H1638       H  0.65935222  0.58143313  0.51185433     0.15110
H1639       H  0.58662874  0.66668317  0.49819691     0.14820
N1640       N  0.53054222  0.62628808  0.51154277     0.73920
O1641       O  0.73507672  0.59875941  0.52407274    -0.39530
O1642       O  0.73532609  0.64208336  0.46659657    -0.39470
O1643       O  0.50998565  0.60481938  0.54139190    -0.40180
O1644       O  0.51085351  0.64947894  0.49112724    -0.40240
C1645       C  0.96603213  0.49680607  0.72683775    -0.12530
C1646       C  0.00538599  0.50326842  0.70042129     0.04480
C1647       C  0.04340594  0.50636710  0.72352193    -0.07810
C1648       C  0.04104189  0.00261061  0.77180652    -0.08560
C1649       C  0.00154333  0.99633853  0.79780897    -0.03110
C1650       C  0.96374782  0.99295222  0.77497516     0.03710
N1651       N  0.92319382  0.98421995  0.80070598     0.66210
H1652       H  0.93656864  0.49364067  0.71076219     0.15110
H1653       H  0.07025783  0.00570302  0.78837838     0.14820
N1654       N  0.08438008  0.51408233  0.69852987     0.73920
O1655       O  0.88818053  0.49574877  0.77938869    -0.39530
O1656       O  0.92155259  0.96200695  0.84109773    -0.39470
O1657       O  0.08811253  0.53725360  0.66013057    -0.40180
O1658       O  0.11825951  0.00064037  0.71970950    -0.40240
C1659       C  0.03332782  0.50775414  0.26695271    -0.12530
C1660       C  0.99575937  0.99807086  0.29615732     0.04480
C1661       C  0.95843013  0.99189553  0.27586088    -0.07810
C1662       C  0.95945684  0.99633624  0.22703665    -0.08560
C1663       C  0.99721582  0.50588126  0.19814798    -0.03110
C1664       C  0.03440124  0.51172424  0.21872122     0.03710
N1665       N  0.07321917  0.52267563  0.19069040     0.66210
H1666       H  0.06215039  0.51308676  0.28108217     0.15110
H1667       H  0.93100966  0.99096611  0.21240201     0.14820
N1668       N  0.92008711  0.97981373  0.30459761     0.73920
O1669       O  0.07425458  0.54783542  0.15759097    -0.39530
O1670       O  0.10803423  0.50872026  0.20388904    -0.39470
O1671       O  0.88298696  0.98782012  0.28554484    -0.40180
O1672       O  0.92310377  0.95794607  0.34541953    -0.40240
C1673       C  0.72514380  0.97653011  0.52740633    -0.12530
C1674       C  0.70502133  0.50259434  0.50025780     0.04480
C1675       C  0.73080431  0.52703582  0.47706151    -0.07810
C1676       C  0.77638219  0.52432627  0.47989195    -0.08560
C1677       C  0.79658683  0.99817567  0.50630191    -0.03110
C1678       C  0.77063408  0.97394895  0.53193297     0.03710
N1679       N  0.78931752  0.94683408  0.56303581     0.66210
H1680       H  0.70496898  0.95810017  0.54635506     0.15110
H1681       H  0.79646485  0.54281981  0.46119675     0.14820
N1682       N  0.71176509  0.55458570  0.45136780     0.73920
O1683       O  0.76825127  0.92484454  0.57240985    -0.39530
O1684       O  0.82510387  0.94459682  0.58466363    -0.39470
O1685       O  0.73296505  0.57575543  0.44641143    -0.40180
O1686       O  0.67463378  0.55820532  0.43180913    -0.40240
C1687       C  0.22917226  0.52239811  0.45636732    -0.12530
C1688       C  0.20533479  0.50116024  0.49431320     0.04480
C1689       C  0.22762755  0.97981866  0.53469015    -0.07810
C1690       C  0.27315831  0.98081385  0.53682270    -0.08560
C1691       C  0.29705656  0.00203039  0.49900258    -0.03110
C1692       C  0.27486237  0.52333711  0.45833683     0.03710
N1693       N  0.29777806  0.54655824  0.42009141     0.66210
H1694       H  0.21187690  0.53894569  0.42595645     0.15110
H1695       H  0.29032886  0.96418855  0.56726693     0.14820
N1696       N  0.20487278  0.95635060  0.57242966     0.73920
O1697       O  0.28132356  0.55972360  0.37769298    -0.39530
O1698       O  0.33183309  0.55607329  0.42981890    -0.39470
O1699       O  0.17303505  0.94560346  0.56144045    -0.40180
O1700       O  0.22011132  0.94391490  0.61552121    -0.40240
C1701       C  0.92233987  0.87149157  0.50948210    -0.12530
C1702       C  0.90151828  0.89735398  0.49477422     0.04480
C1703       C  0.85712635  0.90016908  0.48069218    -0.07810
C1704       C  0.83508963  0.87718127  0.48183782    -0.08560
C1705       C  0.85557941  0.85119429  0.49769417    -0.03110
C1706       C  0.89993377  0.84848204  0.51116112     0.03710
N1707       N  0.92327008  0.82301017  0.52451558     0.66210
H1708       H  0.95642667  0.86911434  0.51964492     0.15110
H1709       H  0.80095297  0.87935612  0.47194097     0.14820
N1710       N  0.83314765  0.92552062  0.46760784     0.73920
O1711       O  0.95366968  0.82266395  0.49728845    -0.39530
O1712       O  0.91992434  0.80308374  0.56759210    -0.39470
O1713       O  0.80305452  0.93272233  0.43607333    -0.40180
O1714       O  0.83693059  0.93814895  0.49300667    -0.40240
C1715       C  0.08197768  0.62509485  0.49662342    -0.12530
C1716       C  0.10448601  0.60233995  0.49725692     0.04480
C1717       C  0.15050836  0.60235649  0.49738878    -0.07810
C1718       C  0.17266392  0.62463231  0.49914844    -0.08560
C1719       C  0.15011689  0.64728538  0.49891016    -0.03110
C1720       C  0.10409286  0.64745073  0.49798115     0.03710
N1721       N  0.07932016  0.66924628  0.50088878     0.66210
H1722       H  0.04673894  0.62491314  0.49695234     0.15110
H1723       H  0.20789502  0.62488807  0.49874037     0.14820
N1724       N  0.17510769  0.58095929  0.49294595     0.73920
O1725       O  0.04258959  0.67618570  0.48029630    -0.39530
O1726       O  0.09105964  0.67880235  0.52946695    -0.39470
O1727       O  0.16170453  0.57095938  0.46559764    -0.40180
O1728       O  0.21302746  0.57489733  0.51057958    -0.40240
loop_ 
_geom_bond_atom_site_label_1 
_geom_bond_atom_site_label_2 
_geom_bond_distance 
_geom_bond_site_symmetry_2 
_ccdc_geom_bond_type 
Zr1           O3   2.430       .  S
Zr1           O4   2.441       .  S
Zr1           O7   2.451       .  S
Zr1           O9   2.384   1_655  S
Zr1          O10   2.380       .  S
Zr1         O875   2.409       .  S
Zr1         O876   2.401       .  S
Zr1         O866   2.439       .  S
O2         Zr865   2.439   1_545  S
O2           H58   0.990       .  S
O2           H66   0.990       .  S
O3           C23   1.283       .  A
O4           C25   1.285       .  A
O5          Zr15   2.426   1_565  S
O5          C888   1.282       .  A
O6          Zr14   2.424       .  S
O6           C25   1.284   1_455  A
O7           C24   1.288       .  A
O8          Zr16   2.424   1_655  S
O8           C23   1.282       .  A
O9          Zr14   2.395       .  S
O9          Zr16   2.375       .  S
O10         Zr16   2.375   1_655  S
O10        Zr879   2.389       .  S
O10          H45   0.966       .  S
O11         Zr31   2.393       .  S
O11        Zr865   2.409   1_545  S
O11        Zr878   2.402   1_645  S
O11          H48   0.966       .  S
O12         Zr15   2.387       .  S
O12         Zr31   2.396       .  S
O12        Zr865   2.401   1_545  S
Zr13         O32   2.438       .  S
Zr13         O40   2.440       .  S
Zr13         O28   2.436       .  S
Zr13         O21   2.379       .  S
Zr13         O22   2.382   1_455  S
Zr13        O883   2.402   1_545  S
Zr13        O884   2.404   1_545  S
Zr13        O902   2.448   1_545  S
Zr14         O27   2.441       .  S
Zr14         O20   2.391       .  S
Zr14        O875   2.402   1_455  S
Zr14        O885   2.386       .  S
Zr14         O26   2.436       .  S
Zr14        O897   2.436       .  S
Zr15         O41   2.412       .  S
Zr15         O22   2.386       .  S
Zr15        O874   2.389   1_545  S
Zr15        O883   2.392   1_645  S
Zr15         O17   2.434       .  S
Zr15        O903   2.437   1_545  S
Zr16         O19   2.396       .  S
Zr16         O20   2.393       .  S
Zr16         O42   2.434   1_455  S
Zr16         O43   2.435       .  S
Zr16         O18   2.437       .  S
O17          H54   0.990       .  S
O18          H49   0.990       .  S
O18          H63   0.990       .  S
O19        Zr877   2.402       .  S
O19        Zr879   2.392   1_455  S
O20        Zr877   2.404       .  S
O20          H46   0.965       .  S
O21         Zr31   2.377   1_455  S
O21        Zr878   2.386   1_545  S
O22         Zr31   2.375       .  S
O22          H47   0.966       .  S
C23         C838   1.483       .  S
C24         O869   1.282       .  A
C24         C813   1.478       .  S
C25         C796   1.491       .  S
O26          H62   0.990       .  S
O27         C893   1.286       .  A
O28          C29   1.285       .  A
C29         O891   1.286       .  A
C29         C824   1.478       .  S
O30         Zr31   2.439       .  S
O30          H59   0.990       .  S
Zr31         O36   2.424   1_655  S
Zr31         O34   2.436   1_655  S
Zr31         O35   2.441       .  S
O32          C37   1.286       .  A
O33        Zr878   2.436   1_545  S
O33          H50   0.990       .  S
O33          H65   0.990       .  S
O34          H51   0.990       .  S
O35          H55   0.990       .  S
O35          H64   0.989       .  S
O36          C37   1.282       .  A
C37         C852   1.478       .  S
O38        Zr877   2.448       .  S
O38          H57   0.990       .  S
O38          H61   0.989       .  S
O39        Zr879   2.437       .  S
O39          H53   0.990       .  S
O39          H60   0.989       .  S
O40          C44   1.285       .  A
O41          C44   1.283   1_655  A
O42          H52   0.990       .  S
O43          H56   0.990       .  S
C44         C782   1.493       .  S
Zr67         O69   2.434       .  S
Zr67         O70   2.435       .  S
Zr67         O73   2.433       .  S
Zr67         O75   2.384       .  S
Zr67         O76   2.381       .  S
Zr67        O941   2.407       .  S
Zr67        O942   2.399       .  S
Zr67        O932   2.441       .  S
O68        Zr931   2.441   1_545  S
O68         H124   0.990       .  S
O68         H132   0.990       .  S
O69          C89   1.284       .  A
O70          C91   1.284       .  A
O71         Zr81   2.436       .  S
O71         C954   1.285   1_565  A
O72         Zr80   2.423       .  S
O72          C91   1.283       .  A
O73          C90   1.285       .  A
O74         Zr82   2.426       .  S
O74          C89   1.282       .  A
O75         Zr80   2.397       .  S
O75         Zr82   2.377       .  S
O76         Zr82   2.375       .  S
O76        Zr945   2.389       .  S
O76         H111   0.966       .  S
O77         Zr97   2.392       .  S
O77        Zr931   2.407   1_545  S
O77        Zr944   2.404       .  S
O77         H114   0.966       .  S
O78         Zr81   2.390   1_545  S
O78         Zr97   2.390       .  S
O78        Zr931   2.399   1_545  S
Zr79         O98   2.429       .  S
Zr79        O106   2.422       .  S
Zr79         O94   2.435       .  S
Zr79         O87   2.374       .  S
Zr79         O88   2.383       .  S
Zr79        O949   2.403   1_545  S
Zr79        O950   2.400   1_545  S
Zr79        O968   2.444   1_545  S
Zr80         O93   2.437       .  S
Zr80         O86   2.390       .  S
Zr80        O941   2.404       .  S
Zr80        O951   2.383       .  S
Zr80         O92   2.436       .  S
Zr80        O963   2.433       .  S
Zr81        O107   2.431   1_565  S
Zr81         O88   2.386   1_565  S
Zr81        O940   2.389       .  S
Zr81        O949   2.393       .  S
Zr81         O83   2.435   1_565  S
Zr81        O969   2.436       .  S
Zr82         O85   2.397       .  S
Zr82         O86   2.395       .  S
Zr82        O108   2.435       .  S
Zr82        O109   2.435       .  S
Zr82         O84   2.436       .  S
O83         H120   0.990       .  S
O84         H115   0.990       .  S
O84         H129   0.989       .  S
O85        Zr943   2.403       .  S
O85        Zr945   2.393       .  S
O86        Zr943   2.400       .  S
O86         H112   0.966       .  S
O87         Zr97   2.377       .  S
O87        Zr944   2.383       .  S
O88         Zr97   2.373       .  S
O88         H113   0.966       .  S
C89         C757   1.480       .  S
C90         O935   1.285       .  A
C90         C827   1.478       .  S
C91         C743   1.482       .  S
O92         H128   0.990       .  S
O93         C959   1.285       .  A
O94          C95   1.284       .  A
C95         O957   1.285       .  A
C95         C810   1.473       .  S
O96         Zr97   2.439       .  S
O96         H125   0.990       .  S
Zr97        O102   2.420       .  S
Zr97        O100   2.436       .  S
Zr97        O101   2.440       .  S
O98         C103   1.284       .  A
O99        Zr944   2.433       .  S
O99         H116   0.990       .  S
O99         H131   0.989       .  S
O100        H117   0.990       .  S
O101        H121   0.990       .  S
O101        H130   0.989       .  S
O102        C103   1.282       .  A
C103        C768   1.473       .  S
O104       Zr943   2.444       .  S
O104        H123   0.990       .  S
O104        H127   0.990       .  S
O105       Zr945   2.436       .  S
O105        H119   0.990       .  S
O105        H126   0.990       .  S
O106        C110   1.281       .  A
O107        C110   1.286       .  A
O108        H118   0.990       .  S
O109        H122   0.990       .  S
C110        C726   1.492       .  S
Zr133       O135   2.432       .  S
Zr133       O136   2.438       .  S
Zr133       O139   2.423       .  S
Zr133       O141   2.379       .  S
Zr133       O142   2.379       .  S
Zr133       O143   2.404       .  S
Zr133       O144   2.401       .  S
Zr133       O134   2.440       .  S
O134        H190   0.990       .  S
O134        H198   0.990       .  S
O135        C155   1.284       .  A
O136        C157   1.284       .  A
O137       Zr147   2.421       .  S
O137        C156   1.282       .  A
O138       Zr146   2.441       .  S
O138        C157   1.286       .  A
O139        C156   1.285       .  A
O140       Zr148   2.430       .  S
O140        C155   1.283       .  A
O141       Zr146   2.394       .  S
O141       Zr148   2.376       .  S
O142       Zr147   2.388       .  S
O142       Zr148   2.372       .  S
O142        H177   0.966       .  S
O143       Zr146   2.399       .  S
O143       Zr163   2.396       .  S
O143        H180   0.966       .  S
O144       Zr147   2.392       .  S
O144       Zr163   2.394       .  S
Zr145       O164   2.430       .  S
Zr145       O172   2.438       .  S
Zr145       O160   2.415       .  S
Zr145       O151   2.396       .  S
Zr145       O152   2.407       .  S
Zr145       O153   2.379       .  S
Zr145       O154   2.376       .  S
Zr145       O170   2.442       .  S
Zr146       O159   2.441       .  S
Zr146       O152   2.395       .  S
Zr146       O153   2.388       .  S
Zr146       O165   2.436       .  S
Zr146       O158   2.435       .  S
Zr147       O173   2.428       .  S
Zr147       O151   2.387       .  S
Zr147       O154   2.384       .  S
Zr147       O149   2.435       .  S
Zr147       O171   2.437       .  S
Zr148       O151   2.401       .  S
Zr148       O152   2.395       .  S
Zr148       O174   2.435       .  S
Zr148       O175   2.435       .  S
Zr148       O150   2.437       .  S
O149        H186   0.990       .  S
O150        H181   0.990       .  S
O150        H195   0.990       .  S
O152        H178   0.966       .  S
O153       Zr163   2.372       .  S
O154       Zr163   2.377       .  S
O154        H179   0.966       .  S
C155        C855   1.479       .  S
C156        C715   1.490       .  S
C157        C684   1.483       .  S
O158        H194   0.990       .  S
O159        C161   1.288       .  A
O160        C161   1.280       .  A
C161        C698   1.491       .  S
O162       Zr163   2.439       .  S
O162        H191   0.990       .  S
Zr163       O168   2.430       .  S
Zr163       O166   2.436       .  S
Zr163       O167   2.440       .  S
O164        C169   1.284       .  A
O165        H182   0.990       .  S
O165        H197   0.990       .  S
O166        H183   0.990       .  S
O167        H187   0.990       .  S
O167        H196   0.989       .  S
O168        C169   1.284       .  A
C169        C754   1.480       .  S
O170        H189   0.990       .  S
O170        H193   0.990       .  S
O171        H185   0.990       .  S
O171        H192   0.990       .  S
O172        C176   1.286       .  A
O173        C176   1.284       .  A
O174        H184   0.990       .  S
O175        H188   0.990       .  S
C176        C670   1.478       .  S
Zr199       O201   2.430       .  S
Zr199       O202   2.447       .  S
Zr199       O205   2.430       .  S
Zr199       O207   2.380       .  S
Zr199       O208   2.384       .  S
Zr199       O209   2.402       .  S
Zr199       O210   2.405       .  S
Zr199       O200   2.438       .  S
O200        H256   0.990       .  S
O200        H264   0.990       .  S
O201        C221   1.283       .  A
O202        C223   1.286       .  A
O203       Zr213   2.431       .  S
O203        C222   1.286       .  A
O204       Zr212   2.421       .  S
O204        C223   1.282       .  A
O205        C222   1.285       .  A
O206       Zr214   2.418       .  S
O206        C221   1.281       .  A
O207       Zr212   2.391       .  S
O207       Zr214   2.379       .  S
O208       Zr213   2.391       .  S
O208       Zr214   2.374       .  S
O208        H243   0.966       .  S
O209       Zr212   2.395       .  S
O209       Zr229   2.397       .  S
O209        H246   0.966       .  S
O210       Zr213   2.390       .  S
O210       Zr229   2.393       .  S
Zr211       O230   2.423       .  S
Zr211       O238   2.434       .  S
Zr211       O226   2.423       .  S
Zr211       O217   2.397       .  S
Zr211       O218   2.401       .  S
Zr211       O219   2.376       .  S
Zr211       O220   2.379       .  S
Zr211       O236   2.443       .  S
Zr212       O225   2.422       .  S
Zr212       O218   2.393       .  S
Zr212       O219   2.383       .  S
Zr212       O231   2.436       .  S
Zr212       O224   2.433       .  S
Zr213       O239   2.437       .  S
Zr213       O217   2.390       .  S
Zr213       O220   2.385       .  S
Zr213       O215   2.435       .  S
Zr213       O237   2.438       .  S
Zr214       O217   2.392       .  S
Zr214       O218   2.392       .  S
Zr214       O240   2.435       .  S
Zr214       O241   2.435       .  S
Zr214       O216   2.436       .  S
O215        H252   0.990       .  S
O216        H247   0.990       .  S
O216        H261   0.989       .  S
O218        H244   0.966       .  S
O219       Zr229   2.371       .  S
O220       Zr229   2.378       .  S
O220        H245   0.966       .  S
C221        C771   1.473       .  S
C222        C701   1.490       .  S
C223        C656   1.493       .  S
O224        H260   0.989       .  S
O225        C227   1.282       .  A
O226        C227   1.284       .  A
C227        C712   1.489       .  S
O228       Zr229   2.439       .  S
O228        H257   0.990       .  S
Zr229       O234   2.426       .  S
Zr229       O232   2.436       .  S
Zr229       O233   2.441       .  S
O230        C235   1.282       .  A
O231        H248   0.990       .  S
O231        H263   0.990       .  S
O232        H249   0.990       .  S
O233        H253   0.990       .  S
O233        H262   0.989       .  S
O234        C235   1.284       .  A
C235        C841   1.481       .  S
O236        H255   0.990       .  S
O236        H259   0.990       .  S
O237        H251   0.990       .  S
O237        H258   0.990       .  S
O238        C242   1.285       .  A
O239        C242   1.286       .  A
O240        H250   0.990       .  S
O241        H254   0.990       .  S
C242        C642   1.476       .  S
Zr265       O267   2.431       .  S
Zr265       O268   2.437       .  S
Zr265       O271   2.429       .  S
Zr265       O273   2.382   1_655  S
Zr265       O274   2.381   1_554  S
Zr265      O1139   2.405   1_545  S
Zr265      O1140   2.403   1_545  S
Zr265      O1130   2.440   1_545  S
O266      Zr1129   2.440       .  S
O266        H322   0.990       .  S
O266        H330   0.990       .  S
O267        C287   1.283   1_554  A
O268        C289   1.285       .  A
O269      Zr1143   2.437       .  S
O269        C288   1.285       .  A
O270       Zr278   2.427       .  S
O270        C289   1.284   1_455  A
O271        C288   1.284   1_554  A
O272       Zr280   2.421   1_655  S
O272        C287   1.281       .  A
O273       Zr278   2.395       .  S
O273       Zr280   2.380   1_554  S
O274       Zr280   2.373   1_655  S
O274      Zr1143   2.389       .  S
O274        H309   0.966       .  S
O275       Zr295   2.396       .  S
O275      Zr1129   2.405       .  S
O275      Zr1142   2.398   1_655  S
O275        H312   0.966       .  S
O276       Zr279   2.389   1_554  S
O276       Zr295   2.398       .  S
O276      Zr1129   2.403       .  S
Zr277       O296   2.425       .  S
Zr277       O304   2.426       .  S
Zr277       O292   2.435       .  S
Zr277       O285   2.376   1_556  S
Zr277       O286   2.380   1_455  S
Zr277      O1147   2.398       .  S
Zr277      O1148   2.400       .  S
Zr277      O1166   2.439       .  S
Zr278       O291   2.433       .  S
Zr278       O284   2.392   1_554  S
Zr278      O1139   2.398   1_445  S
Zr278      O1149   2.384   1_545  S
Zr278       O290   2.434       .  S
Zr278      O1161   2.436   1_545  S
Zr279       O305   2.431       .  S
Zr279      O1133   2.437       .  S
Zr279       O286   2.385       .  S
Zr279      O1138   2.389       .  S
Zr279      O1147   2.392   1_655  S
Zr279       O281   2.434       .  S
Zr279      O1167   2.436       .  S
Zr280       O283   2.393       .  S
Zr280       O284   2.392       .  S
Zr280       O306   2.435   1_455  S
Zr280       O307   2.435       .  S
Zr280       O282   2.436       .  S
O281        H318   0.990       .  S
O282        H313   0.990       .  S
O282        H327   0.989       .  S
O283      Zr1141   2.398   1_545  S
O283      Zr1143   2.392   1_455  S
O284      Zr1141   2.400   1_545  S
O284        H310   0.966       .  S
O285       Zr295   2.373   1_455  S
O285      Zr1142   2.384       .  S
O286       Zr295   2.375   1_556  S
O286        H311   0.966       .  S
C287        C614   1.468       .  S
C288        C586   1.474       .  S
C289        C799   1.488       .  S
O290        H326   0.990       .  S
O291       C1157   1.286   1_544  A
O292        C293   1.286       .  A
C293       O1155   1.286   1_556  A
C293        C600   1.487   1_556  S
O294       Zr295   2.439       .  S
O294        H323   0.990       .  S
Zr295       O300   2.433   1_655  S
Zr295       O298   2.436   1_655  S
Zr295       O299   2.441       .  S
O296        C301   1.282       .  A
O297      Zr1142   2.436       .  S
O297        H314   0.990       .  S
O297        H329   0.990       .  S
O298        H315   0.990       .  S
O299        H319   0.990       .  S
O299        H328   0.989       .  S
O300        C301   1.284   1_554  A
C301        C628   1.482       .  S
O302      Zr1141   2.439   1_545  S
O302        H321   0.990       .  S
O302        H325   0.988       .  S
O303      Zr1143   2.436       .  S
O303        H317   0.990       .  S
O303        H324   0.990       .  S
O304        C308   1.284       .  A
O305        C308   1.285   1_655  A
O306        H316   0.990       .  S
O307        H320   0.990       .  S
C308        C785   1.487       .  S
Zr331       O333   2.431       .  S
Zr331       O334   2.438       .  S
Zr331       O337   2.437       .  S
Zr331       O339   2.382       .  S
Zr331       O340   2.379   1_554  S
Zr331      O1205   2.409   1_545  S
Zr331      O1206   2.400   1_545  S
Zr331      O1196   2.437   1_545  S
O332      Zr1195   2.437       .  S
O332        H388   0.990       .  S
O332        H396   0.989       .  S
O333        C353   1.283       .  A
O334        C355   1.284       .  A
O335       Zr345   2.422       .  S
O335       C1218   1.283   1_556  A
O336       Zr344   2.416   1_545  S
O336        C355   1.282       .  A
O337        C354   1.285   1_545  A
O338       Zr346   2.423       .  S
O338        C353   1.281   1_556  A
O339       Zr344   2.397   1_545  S
O339       Zr346   2.377   1_554  S
O340       Zr346   2.377       .  S
O340      Zr1209   2.388       .  S
O340        H375   0.966       .  S
O341       Zr361   2.396       .  S
O341      Zr1195   2.409       .  S
O341      Zr1208   2.401       .  S
O341        H378   0.966       .  S
O342       Zr345   2.386   1_554  S
O342       Zr361   2.396       .  S
O342      Zr1195   2.400       .  S
Zr343       O362   2.429       .  S
Zr343       O370   2.440       .  S
Zr343       O358   2.442       .  S
Zr343       O351   2.379   1_556  S
Zr343       O352   2.380       .  S
Zr343      O1213   2.401       .  S
Zr343      O1214   2.403       .  S
Zr343      O1232   2.444       .  S
Zr344       O357   2.430       .  S
Zr344       O350   2.393   1_564  S
Zr344      O1205   2.401       .  S
Zr344      O1215   2.385       .  S
Zr344       O356   2.436   1_565  S
Zr344      O1227   2.436       .  S
Zr345       O371   2.416       .  S
Zr345       O352   2.383       .  S
Zr345      O1204   2.388       .  S
Zr345      O1213   2.393       .  S
Zr345       O347   2.435       .  S
Zr345      O1233   2.437       .  S
Zr346       O349   2.397       .  S
Zr346       O350   2.392       .  S
Zr346       O372   2.435       .  S
Zr346       O373   2.435       .  S
Zr346       O348   2.436       .  S
O347        H384   0.990       .  S
O348        H379   0.990       .  S
O348        H393   0.989   1_556  S
O349      Zr1207   2.401   1_545  S
O349      Zr1209   2.393       .  S
O350      Zr1207   2.403   1_545  S
O350        H376   0.966       .  S
O351       Zr361   2.375       .  S
O351      Zr1208   2.385       .  S
O352       Zr361   2.374   1_556  S
O352        H377   0.966       .  S
C353        C561   1.477       .  S
C354       O1199   1.283   1_554  A
C354        C603   1.488       .  S
C355        C740   1.477       .  S
O356        H392   0.990       .  S
O357       C1223   1.284       .  A
O358        C359   1.286   1_556  A
C359       O1221   1.284       .  A
C359        C589   1.475       .  S
O360       Zr361   2.439       .  S
O360        H389   0.990       .  S
Zr361       O366   2.429       .  S
Zr361       O364   2.436       .  S
Zr361       O365   2.441       .  S
O362        C367   1.284       .  A
O363      Zr1208   2.436       .  S
O363        H380   0.990       .  S
O363        H395   0.990       .  S
O364        H381   0.990       .  S
O365        H385   0.990       .  S
O365        H394   0.989       .  S
O366        C367   1.284   1_554  A
C367        C572   1.481       .  S
O368      Zr1207   2.444   1_545  S
O368        H387   0.990       .  S
O368        H391   0.990       .  S
O369      Zr1209   2.437       .  S
O369        H383   0.990       .  S
O369        H390   0.990       .  S
O370        C374   1.287       .  A
O371        C374   1.282       .  A
O372        H382   0.990       .  S
O373        H386   0.990       .  S
C374        C729   1.491       .  S
Zr397       O399   2.431       .  S
Zr397       O400   2.442       .  S
Zr397       O403   2.431       .  S
Zr397       O405   2.380       .  S
Zr397       O406   2.382   1_554  S
Zr397       O407   2.403       .  S
Zr397       O408   2.402       .  S
Zr397       O398   2.439       .  S
O398        H454   0.990       .  S
O398        H462   0.990       .  S
O399        C419   1.282       .  A
O400        C421   1.285       .  A
O401       Zr411   2.424       .  S
O401        C420   1.283       .  A
O402       Zr410   2.435       .  S
O402        C421   1.285       .  A
O403        C420   1.286   1_554  A
O404       Zr412   2.426       .  S
O404        C419   1.283   1_556  A
O405       Zr410   2.394       .  S
O405       Zr412   2.375   1_554  S
O406       Zr411   2.391       .  S
O406       Zr412   2.373       .  S
O406        H441   0.966       .  S
O407       Zr410   2.400       .  S
O407       Zr427   2.397       .  S
O407        H444   0.966       .  S
O408       Zr411   2.393   1_554  S
O408       Zr427   2.391       .  S
Zr409       O428   2.430       .  S
Zr409       O436   2.433       .  S
Zr409       O424   2.411       .  S
Zr409       O415   2.396       .  S
Zr409       O416   2.405       .  S
Zr409       O417   2.379   1_556  S
Zr409       O418   2.377       .  S
Zr409       O434   2.444       .  S
Zr410       O423   2.441       .  S
Zr410       O416   2.395   1_554  S
Zr410       O417   2.386       .  S
Zr410       O429   2.435       .  S
Zr410       O422   2.435       .  S
Zr411       O437   2.436       .  S
Zr411       O415   2.389       .  S
Zr411       O418   2.384       .  S
Zr411       O413   2.435       .  S
Zr411       O435   2.437       .  S
Zr412       O415   2.399       .  S
Zr412       O416   2.394       .  S
Zr412       O438   2.434       .  S
Zr412       O439   2.435       .  S
Zr412       O414   2.437       .  S
O413        H450   0.990       .  S
O414        H445   0.990       .  S
O414        H459   0.990   1_556  S
O416        H442   0.966       .  S
O417       Zr427   2.374       .  S
O418       Zr427   2.377   1_556  S
O418        H443   0.966       .  S
C419        C631   1.482       .  S
C420        C547   1.494       .  S
C421        C687   1.478       .  S
O422        H458   0.990       .  S
O423        C425   1.287       .  A
O424        C425   1.282   1_556  A
C425        C530   1.482       .  S
O426       Zr427   2.439       .  S
O426        H455   0.990       .  S
Zr427       O432   2.427       .  S
Zr427       O430   2.436       .  S
Zr427       O431   2.440       .  S
O428        C433   1.284       .  A
O429        H446   0.990       .  S
O429        H461   0.990       .  S
O430        H447   0.990       .  S
O431        H451   0.990       .  S
O431        H460   0.989       .  S
O432        C433   1.283   1_554  A
C433        C558   1.476       .  S
O434        H453   0.990       .  S
O434        H457   0.990       .  S
O435        H449   0.990       .  S
O435        H456   0.990       .  S
O436        C440   1.284       .  A
O437        C440   1.285       .  A
O438        H448   0.990       .  S
O439        H452   0.990       .  S
C440        C673   1.474       .  S
Zr463       O465   2.433       .  S
Zr463       O466   2.442       .  S
Zr463       O469   2.413       .  S
Zr463       O471   2.378       .  S
Zr463       O472   2.382   1_554  S
Zr463       O473   2.400       .  S
Zr463       O474   2.404       .  S
Zr463       O464   2.440       .  S
O464        H520   0.990       .  S
O464        H528   0.990       .  S
O465        C485   1.284   1_554  A
O466        C487   1.284       .  A
O467       Zr477   2.438       .  S
O467        C486   1.286       .  A
O468       Zr476   2.424       .  S
O468        C487   1.284       .  A
O469        C486   1.282   1_554  A
O470       Zr478   2.420       .  S
O470        C485   1.282       .  A
O471       Zr476   2.390       .  S
O471       Zr478   2.378   1_554  S
O472       Zr477   2.388       .  S
O472       Zr478   2.375       .  S
O472        H507   0.966       .  S
O473       Zr476   2.395       .  S
O473       Zr493   2.396       .  S
O473        H510   0.966       .  S
O474       Zr477   2.390   1_554  S
O474       Zr493   2.394       .  S
Zr475       O494   2.426       .  S
Zr475       O502   2.438       .  S
Zr475       O490   2.434       .  S
Zr475       O481   2.397       .  S
Zr475       O482   2.403       .  S
Zr475       O483   2.378   1_556  S
Zr475       O484   2.382       .  S
Zr475       O500   2.445       .  S
Zr476       O489   2.424       .  S
Zr476       O482   2.393   1_554  S
Zr476       O483   2.387       .  S
Zr476       O495   2.436       .  S
Zr476       O488   2.435       .  S
Zr477       O503   2.431       .  S
Zr477       O481   2.393       .  S
Zr477       O484   2.387       .  S
Zr477       O479   2.434       .  S
Zr477       O501   2.435       .  S
Zr478       O481   2.395       .  S
Zr478       O482   2.392       .  S
Zr478       O504   2.434       .  S
Zr478       O505   2.435       .  S
Zr478       O480   2.437       .  S
O479        H516   0.990       .  S
O480        H511   0.990       .  S
O480        H525   0.990       .  S
O482        H508   0.966       .  S
O483       Zr493   2.373       .  S
O484       Zr493   2.376   1_556  S
O484        H509   0.966       .  S
C485        C575   1.477       .  S
C486        C533   1.483       .  S
C487        C659   1.496       .  S
O488        H524   0.990       .  S
O489        C491   1.283       .  A
O490        C491   1.286   1_556  A
C491        C544   1.494       .  S
O492       Zr493   2.439       .  S
O492        H521   0.990       .  S
Zr493       O498   2.428       .  S
Zr493       O496   2.436       .  S
Zr493       O497   2.439       .  S
O494        C499   1.283       .  A
O495        H512   0.990       .  S
O495        H527   0.990       .  S
O496        H513   0.990       .  S
O497        H517   0.990       .  S
O497        H526   0.989       .  S
O498        C499   1.283   1_554  A
C499        C617   1.468       .  S
O500        H519   0.990       .  S
O500        H523   0.990       .  S
O501        H515   0.990       .  S
O501        H522   0.989       .  S
O502        C506   1.285       .  A
O503        C506   1.284       .  A
O504        H514   0.990       .  S
O505        H518   0.990       .  S
C506        C645   1.473       .  S
C529        C530   1.406   1_556  A
C529        C534   1.399       .  A
C529        H536   1.084       .  S
C530        C531   1.413       .  A
C531        C532   1.402       .  A
C531        N538   1.436       .  S
C532        C533   1.407   1_554  A
C532        H537   1.084       .  S
C533        C534   1.412       .  A
C534        N535   1.434       .  S
N535        O539   1.263       .  A
N535        O540   1.262       .  A
N538        O541   1.262       .  A
N538        O542   1.263       .  A
C543        C544   1.407   1_556  A
C543        C548   1.400   1_655  A
C543        H550   1.083       .  S
C544        C545   1.418       .  A
C545        C546   1.401   1_655  A
C545        N552   1.433       .  S
C546        C547   1.407   1_554  A
C546        H551   1.083       .  S
C547        C548   1.418       .  A
C548        N549   1.432       .  S
N549        O553   1.262       .  A
N549        O554   1.262       .  A
N552        O555   1.262       .  A
N552        O556   1.262       .  A
C557        C558   1.404       .  A
C557        C562   1.405   1_556  A
C557        H564   1.084       .  S
C558        C559   1.415   1_556  A
C559        C560   1.403       .  A
C559        N566   1.440   1_554  S
C560        C561   1.403       .  A
C560        H565   1.084       .  S
C561        C562   1.415       .  A
C562        N563   1.440       .  S
N563        O567   1.263   1_554  A
N563        O568   1.263       .  A
N566        O569   1.262       .  A
N566        O570   1.263   1_556  A
C571        C572   1.405   1_554  A
C571        C576   1.405       .  A
C571        H578   1.084       .  S
C572        C573   1.416       .  A
C573        C574   1.401       .  A
C573        N580   1.437       .  S
C574        C575   1.402       .  A
C574        H579   1.084       .  S
C575        C576   1.415   1_556  A
C576        N577   1.440       .  S
N577        O581   1.263       .  A
N577        O582   1.263   1_554  A
N580        O583   1.261   1_556  A
N580        O584   1.263       .  A
C585        C590   1.405       .  A
C585       C1450   1.402   1_554  A
C585        H592   1.084       .  S
C586        C587   1.420       .  A
C586       C1449   1.402   1_546  A
C587        C588   1.408       .  A
C587        N594   1.449       .  S
C588       C1453   1.402   1_546  A
C588        H593   1.084       .  S
C589        C590   1.417       .  A
C589       C1452   1.402   1_554  A
C590        N591   1.443       .  S
N591        O595   1.263       .  A
N591        O596   1.261       .  A
N594        O597   1.261       .  A
N594        O598   1.263       .  A
C599        C600   1.405       .  A
C599        C604   1.404       .  A
C599        H606   1.084       .  S
C600       C1465   1.412   1_554  A
C601        C602   1.398       .  A
C601       C1464   1.412   1_546  A
C601        N608   1.428       .  S
C602        C603   1.405   1_546  A
C602        H607   1.084       .  S
C603       C1468   1.417       .  A
C604       C1467   1.417       .  A
C604        N605   1.434       .  S
N605        O609   1.263       .  A
N605        O610   1.263       .  A
N608        O611   1.262       .  A
N608       O1476   1.262       .  A
O612       N1472   1.262       .  A
C613        C614   1.402       .  A
C613        C618   1.404       .  A
C613        H620   1.084       .  S
C614        C615   1.417   1_556  A
C615        C616   1.405       .  A
C615        N622   1.446       .  S
C616        C617   1.402   1_554  A
C616        H621   1.084       .  S
C617        C618   1.416       .  A
C618        N619   1.445       .  S
N619        O623   1.263       .  A
N619        O624   1.261       .  A
N622        O625   1.261       .  A
N622        O626   1.263       .  A
C627        C628   1.405   1_554  A
C627        C632   1.403       .  A
C627        H634   1.084       .  S
C628        C629   1.413       .  A
C629        C630   1.401       .  A
C629        N636   1.432       .  S
C630        C631   1.405   1_556  A
C630        H635   1.084       .  S
C631        C632   1.414       .  A
C632        N633   1.433       .  S
N633        O637   1.262       .  A
N633        O638   1.262       .  A
N636        O639   1.262       .  A
N636        O640   1.262       .  A
C641        C642   1.402       .  A
C641        C646   1.407       .  A
C641        H648   1.084       .  S
C642        C643   1.416       .  A
C643        C644   1.406       .  A
C643        N650   1.442       .  S
C644        C645   1.402       .  A
C644        H649   1.084       .  S
C645        C646   1.416       .  A
C646        N647   1.443       .  S
N647        O651   1.263       .  A
N647        O652   1.263       .  A
N650        O653   1.263       .  A
N650        O654   1.263       .  A
C655        C656   1.407       .  A
C655        C660   1.407       .  A
C655        H662   1.083       .  S
C656        C657   1.416       .  A
C657        C658   1.399       .  A
C657        N664   1.434       .  S
C658        C659   1.407       .  A
C658        H663   1.083       .  S
C659        C660   1.419       .  A
C660        N661   1.435       .  S
N661        O665   1.263       .  A
N661        O666   1.263       .  A
N664        O667   1.262       .  A
N664        O668   1.263       .  A
C669        C670   1.403       .  A
C669        C674   1.405       .  A
C669        H676   1.084       .  S
C670        C671   1.416       .  A
C671        C672   1.407       .  A
C671        N678   1.441       .  S
C672        C673   1.403       .  A
C672        H677   1.084       .  S
C673        C674   1.414       .  A
C674        N675   1.442       .  S
N675        O679   1.263       .  A
N675        O680   1.262       .  A
N678        O681   1.262       .  A
N678        O682   1.263       .  A
C683        C684   1.405       .  A
C683        C688   1.409       .  A
C683        H690   1.084       .  S
C684        C685   1.416       .  A
C685        C686   1.405       .  A
C685        N692   1.437       .  S
C686        C687   1.403       .  A
C686        H691   1.084       .  S
C687        C688   1.416       .  A
C688        N689   1.444       .  S
N689        O693   1.263       .  A
N689        O694   1.263       .  A
N692        O695   1.261       .  A
N692        O696   1.263       .  A
C697        C698   1.405       .  A
C697        C702   1.401       .  A
C697        H704   1.084       .  S
C698        C699   1.419       .  A
C699        C700   1.399       .  A
C699        N706   1.432       .  S
C700        C701   1.404       .  A
C700        H705   1.084       .  S
C701        C702   1.416       .  A
C702        N703   1.431       .  S
N703        O707   1.262       .  A
N703        O708   1.262       .  A
N706        O709   1.262       .  A
N706        O710   1.263       .  A
C711        C712   1.406       .  A
C711        C716   1.398   1_655  A
C711        H718   1.083       .  S
C712        C713   1.417       .  A
C713        C714   1.399   1_655  A
C713        N720   1.432       .  S
C714        C715   1.407       .  A
C714        H719   1.083       .  S
C715        C716   1.417       .  A
C716        N717   1.432       .  S
N717        O721   1.262       .  A
N717        O722   1.262       .  A
N720        O723   1.262       .  A
N720        O724   1.262       .  A
C725        C726   1.405       .  A
C725        C730   1.397   1_545  A
C725        H732   1.083       .  S
C726       C1591   1.420       .  A
C727        C728   1.403       .  A
C727       C1590   1.420       .  A
C727        N734   1.433       .  S
C728        C729   1.406       .  A
C728        H733   1.084       .  S
C729       C1594   1.418       .  A
C730       C1593   1.418       .  A
C730        N731   1.432       .  S
N731        O735   1.262   1_565  A
N731       O1600   1.262       .  A
N734        O738   1.262       .  A
N734       O1601   1.262       .  A
O736       N1595   1.262       .  A
O737       N1598   1.262       .  A
C739        C740   1.402       .  A
C739        C744   1.399       .  A
C739        H746   1.084       .  S
C740       C1605   1.414   1_545  A
C741        C742   1.402       .  A
C741       C1604   1.414       .  A
C741        N748   1.435       .  S
C742        C743   1.405       .  A
C742        H747   1.084       .  S
C743       C1608   1.415       .  A
C744       C1607   1.415       .  A
C744        N745   1.434       .  S
N745        O749   1.263       .  A
N745        O750   1.262       .  A
N748        O751   1.262       .  A
N748        O752   1.263       .  A
C753        C754   1.404       .  A
C753        C758   1.405       .  A
C753        H760   1.084       .  S
C754        C755   1.415       .  A
C755        C756   1.404       .  A
C755        N762   1.439       .  S
C756        C757   1.404       .  A
C756        H761   1.084       .  S
C757        C758   1.415       .  A
C758        N759   1.440       .  S
N759        O763   1.263       .  A
N759        O764   1.263       .  A
N762        O765   1.262       .  A
N762        O766   1.263       .  A
C767        C768   1.402       .  A
C767        C772   1.400       .  A
C767        H774   1.084       .  S
C768        C769   1.416       .  A
C769        C770   1.404       .  A
C769        N776   1.441       .  S
C770        C771   1.403       .  A
C770        H775   1.084       .  S
C771        C772   1.413       .  A
C772        N773   1.438       .  S
N773        O777   1.263       .  A
N773        O778   1.263       .  A
N776        O779   1.263       .  A
N776        O780   1.263       .  A
C781        C782   1.409   1_665  A
C781       C1650   1.398       .  A
C781        H788   1.083       .  S
C782        C783   1.418       .  A
C783       C1648   1.404       .  A
C783        N790   1.434       .  S
C784        C785   1.407       .  A
C784       C1647   1.404       .  A
C784        H789   1.084       .  S
C785        C786   1.413   1_455  A
C786       C1645   1.398       .  A
C786        N787   1.435       .  S
N787        O792   1.262       .  A
N787       O1655   1.263       .  A
N790        O793   1.262       .  A
N790       O1658   1.263       .  A
O791       N1651   1.263       .  A
O794       N1654   1.263       .  A
C795        C800   1.397       .  A
C795       C1660   1.407   1_445  A
C795        H802   1.084       .  S
C796        C797   1.419       .  A
C796       C1659   1.407   1_655  A
C797        C798   1.406       .  A
C797        N804   1.436       .  S
C798       C1663   1.407       .  A
C798        H803   1.083       .  S
C799        C800   1.412   1_655  A
C799       C1662   1.407   1_545  A
C800        N801   1.430       .  S
N801        O805   1.262       .  A
N801        O806   1.262       .  A
N804        O807   1.263       .  A
N804        O808   1.263       .  A
C809        C814   1.406       .  A
C809       C1674   1.401       .  A
C809        H816   1.084       .  S
C810        C811   1.415       .  A
C810       C1673   1.401   1_545  A
C811        C812   1.408       .  A
C811        N818   1.443       .  S
C812       C1677   1.403   1_545  A
C812        H817   1.084       .  S
C813        C814   1.418       .  A
C813       C1676   1.403       .  A
C814        N815   1.442       .  S
N815        O819   1.263       .  A
N815        O820   1.262       .  A
N818        O821   1.263       .  A
N818        O822   1.262       .  A
C823        C824   1.403       .  A
C823        C828   1.409       .  A
C823        H830   1.084       .  S
C824       C1689   1.415   1_545  A
C825        C826   1.404       .  A
C825       C1688   1.415       .  A
C825        N832   1.439       .  S
C826        C827   1.401       .  A
C826        H831   1.084       .  S
C827       C1692   1.417       .  A
C828       C1691   1.417       .  A
C828        N829   1.441       .  S
N829        O833   1.263       .  A
N829        O834   1.263       .  A
N832        O835   1.262       .  A
N832        O836   1.263       .  A
C837        C838   1.406       .  A
C837        C842   1.401       .  A
C837        H844   1.084       .  S
C838        C839   1.419       .  A
C839        C840   1.401       .  A
C839        N846   1.437       .  S
C840        C841   1.402       .  A
C840        H845   1.084       .  S
C841        C842   1.413       .  A
C842        N843   1.431       .  S
N843        O847   1.262       .  A
N843        O848   1.262       .  A
N846        O849   1.263       .  A
N846        O850   1.260       .  A
C851        C852   1.403       .  A
C851        C856   1.404       .  A
C851        H858   1.084       .  S
C852        C853   1.416       .  A
C853        C854   1.406       .  A
C853        N860   1.441       .  S
C854        C855   1.404       .  A
C854        H859   1.084       .  S
C855        C856   1.416       .  A
C856        N857   1.440       .  S
N857        O861   1.263       .  A
N857        O862   1.263       .  A
N860        O863   1.263       .  A
N860        O864   1.263       .  A
Zr865       O867   2.430       .  S
Zr865       O868   2.441       .  S
Zr865       O871   2.451       .  S
Zr865       O873   2.384   1_655  S
Zr865       O874   2.380       .  S
O866        H922   0.990       .  S
O866        H930   0.990       .  S
O867        C887   1.283       .  A
O868        C889   1.285       .  A
O869       Zr879   2.426       .  S
O870       Zr878   2.424       .  S
O870        C889   1.284   1_455  A
O871        C888   1.288       .  A
O872       Zr880   2.424   1_655  S
O872        C887   1.282       .  A
O873       Zr878   2.395       .  S
O873       Zr880   2.375       .  S
O874       Zr880   2.375   1_655  S
O874        H909   0.966       .  S
O875       Zr895   2.393       .  S
O875        H912   0.966       .  S
O876       Zr879   2.387       .  S
O876       Zr895   2.396       .  S
Zr877       O896   2.438       .  S
Zr877       O904   2.440       .  S
Zr877       O892   2.436       .  S
Zr877       O885   2.379       .  S
Zr877       O886   2.382   1_455  S
Zr878       O891   2.441   1_565  S
Zr878       O884   2.391       .  S
Zr878       O890   2.436       .  S
Zr879       O905   2.412       .  S
Zr879       O886   2.386       .  S
Zr879       O881   2.434       .  S
Zr880       O883   2.396       .  S
Zr880       O884   2.393       .  S
Zr880       O906   2.434   1_455  S
Zr880       O907   2.435       .  S
Zr880       O882   2.437       .  S
O881        H918   0.990       .  S
O882        H913   0.990       .  S
O882        H927   0.990       .  S
O884        H910   0.965       .  S
O885       Zr895   2.377   1_455  S
O886       Zr895   2.375       .  S
O886        H911   0.966       .  S
C887       C1702   1.483       .  S
C888       C1677   1.478       .  S
C889       C1660   1.491       .  S
O890        H926   0.990       .  S
O892        C893   1.285       .  A
C893       C1688   1.478       .  S
O894       Zr895   2.439       .  S
O894        H923   0.990       .  S
Zr895       O900   2.424   1_655  S
Zr895       O898   2.436   1_655  S
Zr895       O899   2.441       .  S
O896        C901   1.286       .  A
O897        H914   0.990       .  S
O897        H929   0.990       .  S
O898        H915   0.990       .  S
O899        H919   0.990       .  S
O899        H928   0.989       .  S
O900        C901   1.282       .  A
C901       C1716   1.478       .  S
O902        H921   0.990       .  S
O902        H925   0.989       .  S
O903        H917   0.990       .  S
O903        H924   0.989       .  S
O904        C908   1.285       .  A
O905        C908   1.283   1_655  A
O906        H916   0.990       .  S
O907        H920   0.990       .  S
C908       C1646   1.493       .  S
Zr931       O933   2.434       .  S
Zr931       O934   2.435       .  S
Zr931       O937   2.433       .  S
Zr931       O939   2.384       .  S
Zr931       O940   2.381       .  S
O932        H988   0.990       .  S
O932        H996   0.990       .  S
O933        C953   1.284       .  A
O934        C955   1.284   1_565  A
O935       Zr945   2.436       .  S
O936       Zr944   2.423       .  S
O936        C955   1.283       .  A
O937        C954   1.285   1_565  A
O938       Zr946   2.426       .  S
O938        C953   1.282       .  A
O939       Zr944   2.397   1_565  S
O939       Zr946   2.377       .  S
O940       Zr946   2.375       .  S
O940        H975   0.966       .  S
O941       Zr961   2.392       .  S
O941        H978   0.966       .  S
O942       Zr945   2.390       .  S
O942       Zr961   2.390       .  S
Zr943       O962   2.429       .  S
Zr943       O970   2.422       .  S
Zr943       O958   2.435       .  S
Zr943       O951   2.374       .  S
Zr943       O952   2.383       .  S
Zr944       O957   2.437       .  S
Zr944       O950   2.390   1_545  S
Zr944       O956   2.436   1_545  S
Zr945       O971   2.431       .  S
Zr945       O952   2.386       .  S
Zr945       O947   2.435       .  S
Zr946       O949   2.397       .  S
Zr946       O950   2.395       .  S
Zr946       O972   2.435       .  S
Zr946       O973   2.435       .  S
Zr946       O948   2.436       .  S
O947        H984   0.990       .  S
O948        H979   0.990       .  S
O948        H993   0.989       .  S
O950        H976   0.966       .  S
O951       Zr961   2.377       .  S
O952       Zr961   2.373       .  S
O952        H977   0.966       .  S
C953       C1621   1.480       .  S
C954       C1691   1.478       .  S
C955       C1607   1.482       .  S
O956        H992   0.990       .  S
O958        C959   1.284       .  A
C959       C1674   1.473       .  S
O960       Zr961   2.439       .  S
O960        H989   0.990       .  S
Zr961       O966   2.420       .  S
Zr961       O964   2.436       .  S
Zr961       O965   2.440       .  S
O962        C967   1.284       .  A
O963        H980   0.990       .  S
O963        H995   0.989       .  S
O964        H981   0.990       .  S
O965        H985   0.990       .  S
O965        H994   0.989       .  S
O966        C967   1.282       .  A
C967       C1632   1.473       .  S
O968        H987   0.990       .  S
O968        H991   0.990       .  S
O969        H983   0.990       .  S
O969        H990   0.990       .  S
O970        C974   1.281       .  A
O971        C974   1.286       .  A
O972        H982   0.990       .  S
O973        H986   0.990       .  S
C974       C1590   1.492       .  S
Zr997       O999   2.432       .  S
Zr997      O1000   2.438       .  S
Zr997      O1003   2.423       .  S
Zr997      O1005   2.379       .  S
Zr997      O1006   2.379       .  S
Zr997      O1007   2.404       .  S
Zr997      O1008   2.401       .  S
Zr997       O998   2.440       .  S
O998       H1054   0.990       .  S
O998       H1062   0.990       .  S
O999       C1019   1.284       .  A
O1000      C1021   1.284       .  A
O1001     Zr1011   2.421       .  S
O1001      C1020   1.282       .  A
O1002     Zr1010   2.441       .  S
O1002      C1021   1.286       .  A
O1003      C1020   1.285       .  A
O1004     Zr1012   2.430       .  S
O1004      C1019   1.283       .  A
O1005     Zr1010   2.394       .  S
O1005     Zr1012   2.376       .  S
O1006     Zr1011   2.388       .  S
O1006     Zr1012   2.372       .  S
O1006      H1041   0.966       .  S
O1007     Zr1010   2.399       .  S
O1007     Zr1027   2.396       .  S
O1007      H1044   0.966       .  S
O1008     Zr1011   2.392       .  S
O1008     Zr1027   2.394       .  S
Zr1009     O1028   2.430       .  S
Zr1009     O1036   2.438       .  S
Zr1009     O1024   2.415       .  S
Zr1009     O1015   2.396       .  S
Zr1009     O1016   2.407       .  S
Zr1009     O1017   2.379       .  S
Zr1009     O1018   2.376       .  S
Zr1009     O1034   2.442       .  S
Zr1010     O1023   2.441       .  S
Zr1010     O1016   2.395       .  S
Zr1010     O1017   2.388       .  S
Zr1010     O1029   2.436       .  S
Zr1010     O1022   2.435       .  S
Zr1011     O1037   2.428       .  S
Zr1011     O1015   2.387       .  S
Zr1011     O1018   2.384       .  S
Zr1011     O1013   2.435       .  S
Zr1011     O1035   2.437       .  S
Zr1012     O1015   2.401       .  S
Zr1012     O1016   2.395       .  S
Zr1012     O1038   2.435       .  S
Zr1012     O1039   2.435       .  S
Zr1012     O1014   2.437       .  S
O1013      H1050   0.990       .  S
O1014      H1045   0.990       .  S
O1014      H1059   0.990       .  S
O1016      H1042   0.966       .  S
O1017     Zr1027   2.372       .  S
O1018     Zr1027   2.377       .  S
O1018      H1043   0.966       .  S
C1019      C1719   1.479       .  S
C1020      C1579   1.490       .  S
C1021      C1548   1.483       .  S
O1022      H1058   0.990       .  S
O1023      C1025   1.288       .  A
O1024      C1025   1.280       .  A
C1025      C1562   1.491       .  S
O1026     Zr1027   2.439       .  S
O1026      H1055   0.990       .  S
Zr1027     O1032   2.430       .  S
Zr1027     O1030   2.436       .  S
Zr1027     O1031   2.440       .  S
O1028      C1033   1.284       .  A
O1029      H1046   0.990       .  S
O1029      H1061   0.990       .  S
O1030      H1047   0.990       .  S
O1031      H1051   0.990       .  S
O1031      H1060   0.989       .  S
O1032      C1033   1.284       .  A
C1033      C1618   1.480       .  S
O1034      H1053   0.990       .  S
O1034      H1057   0.990       .  S
O1035      H1049   0.990       .  S
O1035      H1056   0.990       .  S
O1036      C1040   1.286       .  A
O1037      C1040   1.284       .  A
O1038      H1048   0.990       .  S
O1039      H1052   0.990       .  S
C1040      C1534   1.478       .  S
Zr1063     O1065   2.430       .  S
Zr1063     O1066   2.447       .  S
Zr1063     O1069   2.430       .  S
Zr1063     O1071   2.380       .  S
Zr1063     O1072   2.384       .  S
Zr1063     O1073   2.402       .  S
Zr1063     O1074   2.405       .  S
Zr1063     O1064   2.438       .  S
O1064      H1120   0.990       .  S
O1064      H1128   0.990       .  S
O1065      C1085   1.283       .  A
O1066      C1087   1.286       .  A
O1067     Zr1077   2.431       .  S
O1067      C1086   1.286       .  A
O1068     Zr1076   2.421       .  S
O1068      C1087   1.282       .  A
O1069      C1086   1.285       .  A
O1070     Zr1078   2.418       .  S
O1070      C1085   1.281       .  A
O1071     Zr1076   2.391       .  S
O1071     Zr1078   2.379       .  S
O1072     Zr1077   2.391       .  S
O1072     Zr1078   2.374       .  S
O1072      H1107   0.966       .  S
O1073     Zr1076   2.395       .  S
O1073     Zr1093   2.397       .  S
O1073      H1110   0.966       .  S
O1074     Zr1077   2.390       .  S
O1074     Zr1093   2.393       .  S
Zr1075     O1094   2.423       .  S
Zr1075     O1102   2.434       .  S
Zr1075     O1090   2.423       .  S
Zr1075     O1081   2.397       .  S
Zr1075     O1082   2.401       .  S
Zr1075     O1083   2.376       .  S
Zr1075     O1084   2.379       .  S
Zr1075     O1100   2.443       .  S
Zr1076     O1089   2.422       .  S
Zr1076     O1082   2.393       .  S
Zr1076     O1083   2.383       .  S
Zr1076     O1095   2.436       .  S
Zr1076     O1088   2.433       .  S
Zr1077     O1103   2.437       .  S
Zr1077     O1081   2.390       .  S
Zr1077     O1084   2.385       .  S
Zr1077     O1079   2.435       .  S
Zr1077     O1101   2.438       .  S
Zr1078     O1081   2.392       .  S
Zr1078     O1082   2.392       .  S
Zr1078     O1104   2.435       .  S
Zr1078     O1105   2.435       .  S
Zr1078     O1080   2.436       .  S
O1079      H1116   0.990       .  S
O1080      H1111   0.990       .  S
O1080      H1125   0.989       .  S
O1082      H1108   0.966       .  S
O1083     Zr1093   2.371       .  S
O1084     Zr1093   2.378       .  S
O1084      H1109   0.966       .  S
C1085      C1635   1.473       .  S
C1086      C1565   1.490       .  S
C1087      C1520   1.493       .  S
O1088      H1124   0.989       .  S
O1089      C1091   1.282       .  A
O1090      C1091   1.284       .  A
C1091      C1576   1.489       .  S
O1092     Zr1093   2.439       .  S
O1092      H1121   0.990       .  S
Zr1093     O1098   2.426       .  S
Zr1093     O1096   2.436       .  S
Zr1093     O1097   2.441       .  S
O1094      C1099   1.282       .  A
O1095      H1112   0.990       .  S
O1095      H1127   0.990       .  S
O1096      H1113   0.990       .  S
O1097      H1117   0.990       .  S
O1097      H1126   0.989       .  S
O1098      C1099   1.284       .  A
C1099      C1705   1.481       .  S
O1100      H1119   0.990       .  S
O1100      H1123   0.990       .  S
O1101      H1115   0.990       .  S
O1101      H1122   0.990       .  S
O1102      C1106   1.285       .  A
O1103      C1106   1.286       .  A
O1104      H1114   0.990       .  S
O1105      H1118   0.990       .  S
C1106      C1506   1.476       .  S
Zr1129     O1131   2.431       .  S
Zr1129     O1132   2.437       .  S
Zr1129     O1135   2.429       .  S
Zr1129     O1137   2.382   1_655  S
Zr1129     O1138   2.381   1_554  S
O1130      H1186   0.990   1_565  S
O1130      H1194   0.990       .  S
O1131      C1151   1.283   1_554  A
O1132      C1153   1.285       .  A
O1133      C1152   1.285       .  A
O1134     Zr1142   2.427       .  S
O1134      C1153   1.284   1_455  A
O1135      C1152   1.284   1_554  A
O1136     Zr1144   2.421   1_655  S
O1136      C1151   1.281       .  A
O1137     Zr1142   2.395       .  S
O1137     Zr1144   2.380   1_554  S
O1138     Zr1144   2.373   1_655  S
O1138      H1173   0.966       .  S
O1139     Zr1159   2.396       .  S
O1139      H1176   0.966       .  S
O1140     Zr1143   2.389   1_564  S
O1140     Zr1159   2.398       .  S
Zr1141     O1160   2.425       .  S
Zr1141     O1168   2.426       .  S
Zr1141     O1156   2.435       .  S
Zr1141     O1149   2.376   1_556  S
Zr1141     O1150   2.380   1_455  S
Zr1142     O1155   2.433       .  S
Zr1142     O1148   2.392   1_554  S
Zr1142     O1154   2.434       .  S
Zr1143     O1169   2.431       .  S
Zr1143     O1150   2.385   1_545  S
Zr1143     O1145   2.434   1_545  S
Zr1144     O1147   2.393       .  S
Zr1144     O1148   2.392       .  S
Zr1144     O1170   2.435   1_455  S
Zr1144     O1171   2.435       .  S
Zr1144     O1146   2.436       .  S
O1145      H1182   0.990       .  S
O1146      H1177   0.990       .  S
O1146      H1191   0.989       .  S
O1148      H1174   0.966       .  S
O1149     Zr1159   2.373   1_455  S
O1150     Zr1159   2.375   1_556  S
O1150      H1175   0.966       .  S
C1151      C1478   1.468       .  S
C1152      C1450   1.474       .  S
C1153      C1663   1.488       .  S
O1154      H1190   0.990       .  S
O1156      C1157   1.286       .  A
C1157      C1464   1.487   1_556  S
O1158     Zr1159   2.439       .  S
O1158      H1187   0.990       .  S
Zr1159     O1164   2.433   1_655  S
Zr1159     O1162   2.436   1_655  S
Zr1159     O1163   2.441       .  S
O1160      C1165   1.282       .  A
O1161      H1178   0.990       .  S
O1161      H1193   0.990       .  S
O1162      H1179   0.990       .  S
O1163      H1183   0.990       .  S
O1163      H1192   0.989       .  S
O1164      C1165   1.284   1_554  A
C1165      C1492   1.482       .  S
O1166      H1185   0.990       .  S
O1166      H1189   0.988       .  S
O1167      H1181   0.990       .  S
O1167      H1188   0.990       .  S
O1168      C1172   1.284       .  A
O1169      C1172   1.285   1_645  A
O1170      H1180   0.990       .  S
O1171      H1184   0.990       .  S
C1172      C1649   1.487       .  S
Zr1195     O1197   2.431       .  S
Zr1195     O1198   2.438       .  S
Zr1195     O1201   2.437       .  S
Zr1195     O1203   2.382       .  S
Zr1195     O1204   2.379   1_554  S
O1196      H1252   0.990   1_565  S
O1196      H1260   0.989       .  S
O1197      C1217   1.283       .  A
O1198      C1219   1.284       .  A
O1199     Zr1209   2.422   1_565  S
O1200     Zr1208   2.416       .  S
O1200      C1219   1.282       .  A
O1201      C1218   1.285       .  A
O1202     Zr1210   2.423       .  S
O1202      C1217   1.281   1_556  A
O1203     Zr1208   2.397       .  S
O1203     Zr1210   2.377   1_554  S
O1204     Zr1210   2.377       .  S
O1204      H1239   0.966       .  S
O1205     Zr1225   2.396       .  S
O1205      H1242   0.966       .  S
O1206     Zr1209   2.386   1_564  S
O1206     Zr1225   2.396       .  S
Zr1207     O1226   2.429       .  S
Zr1207     O1234   2.440       .  S
Zr1207     O1222   2.442       .  S
Zr1207     O1215   2.379   1_556  S
Zr1207     O1216   2.380       .  S
Zr1208     O1221   2.430       .  S
Zr1208     O1214   2.393   1_554  S
Zr1208     O1220   2.436       .  S
Zr1209     O1235   2.416       .  S
Zr1209     O1216   2.383   1_545  S
Zr1209     O1211   2.435   1_545  S
Zr1210     O1213   2.397       .  S
Zr1210     O1214   2.392       .  S
Zr1210     O1236   2.435       .  S
Zr1210     O1237   2.435       .  S
Zr1210     O1212   2.436       .  S
O1211      H1248   0.990       .  S
O1212      H1243   0.990       .  S
O1212      H1257   0.989   1_556  S
O1214      H1240   0.966       .  S
O1215     Zr1225   2.375       .  S
O1216     Zr1225   2.374   1_556  S
O1216      H1241   0.966       .  S
C1217      C1425   1.477       .  S
C1218      C1467   1.488       .  S
C1219      C1604   1.477       .  S
O1220      H1256   0.990       .  S
O1222      C1223   1.286   1_556  A
C1223      C1453   1.475       .  S
O1224     Zr1225   2.439       .  S
O1224      H1253   0.990       .  S
Zr1225     O1230   2.429       .  S
Zr1225     O1228   2.436       .  S
Zr1225     O1229   2.441       .  S
O1226      C1231   1.284       .  A
O1227      H1244   0.990       .  S
O1227      H1259   0.990       .  S
O1228      H1245   0.990       .  S
O1229      H1249   0.990       .  S
O1229      H1258   0.989       .  S
O1230      C1231   1.284   1_554  A
C1231      C1436   1.481       .  S
O1232      H1251   0.990       .  S
O1232      H1255   0.990       .  S
O1233      H1247   0.990       .  S
O1233      H1254   0.990       .  S
O1234      C1238   1.287       .  A
O1235      C1238   1.282   1_545  A
O1236      H1246   0.990       .  S
O1237      H1250   0.990       .  S
C1238      C1593   1.491       .  S
Zr1261     O1263   2.431       .  S
Zr1261     O1264   2.442       .  S
Zr1261     O1267   2.431       .  S
Zr1261     O1269   2.380       .  S
Zr1261     O1270   2.382   1_554  S
Zr1261     O1271   2.403       .  S
Zr1261     O1272   2.402       .  S
Zr1261     O1262   2.439       .  S
O1262      H1318   0.990       .  S
O1262      H1326   0.990       .  S
O1263      C1283   1.282       .  A
O1264      C1285   1.285       .  A
O1265     Zr1275   2.424       .  S
O1265      C1284   1.283       .  A
O1266     Zr1274   2.435       .  S
O1266      C1285   1.285       .  A
O1267      C1284   1.286   1_554  A
O1268     Zr1276   2.426       .  S
O1268      C1283   1.283   1_556  A
O1269     Zr1274   2.394       .  S
O1269     Zr1276   2.375   1_554  S
O1270     Zr1275   2.391       .  S
O1270     Zr1276   2.373       .  S
O1270      H1305   0.966       .  S
O1271     Zr1274   2.400       .  S
O1271     Zr1291   2.397       .  S
O1271      H1308   0.966       .  S
O1272     Zr1275   2.393   1_554  S
O1272     Zr1291   2.391       .  S
Zr1273     O1292   2.430       .  S
Zr1273     O1300   2.433       .  S
Zr1273     O1288   2.411       .  S
Zr1273     O1279   2.396       .  S
Zr1273     O1280   2.405       .  S
Zr1273     O1281   2.379   1_556  S
Zr1273     O1282   2.377       .  S
Zr1273     O1298   2.444       .  S
Zr1274     O1287   2.441       .  S
Zr1274     O1280   2.395   1_554  S
Zr1274     O1281   2.386       .  S
Zr1274     O1293   2.435       .  S
Zr1274     O1286   2.435       .  S
Zr1275     O1301   2.436       .  S
Zr1275     O1279   2.389       .  S
Zr1275     O1282   2.384       .  S
Zr1275     O1277   2.435       .  S
Zr1275     O1299   2.437       .  S
Zr1276     O1279   2.399       .  S
Zr1276     O1280   2.394       .  S
Zr1276     O1302   2.434       .  S
Zr1276     O1303   2.435       .  S
Zr1276     O1278   2.437       .  S
O1277      H1314   0.990       .  S
O1278      H1309   0.990       .  S
O1278      H1323   0.990   1_556  S
O1280      H1306   0.966       .  S
O1281     Zr1291   2.374       .  S
O1282     Zr1291   2.377   1_556  S
O1282      H1307   0.966       .  S
C1283      C1495   1.482       .  S
C1284      C1411   1.494       .  S
C1285      C1551   1.478       .  S
O1286      H1322   0.990       .  S
O1287      C1289   1.287       .  A
O1288      C1289   1.282   1_556  A
C1289      C1394   1.482       .  S
O1290     Zr1291   2.439       .  S
O1290      H1319   0.990       .  S
Zr1291     O1296   2.427       .  S
Zr1291     O1294   2.436       .  S
Zr1291     O1295   2.440       .  S
O1292      C1297   1.284       .  A
O1293      H1310   0.990       .  S
O1293      H1325   0.990       .  S
O1294      H1311   0.990       .  S
O1295      H1315   0.990       .  S
O1295      H1324   0.989       .  S
O1296      C1297   1.283   1_554  A
C1297      C1422   1.476       .  S
O1298      H1317   0.990       .  S
O1298      H1321   0.990       .  S
O1299      H1313   0.990       .  S
O1299      H1320   0.990       .  S
O1300      C1304   1.284       .  A
O1301      C1304   1.285       .  A
O1302      H1312   0.990       .  S
O1303      H1316   0.990       .  S
C1304      C1537   1.474       .  S
Zr1327     O1329   2.433       .  S
Zr1327     O1330   2.442       .  S
Zr1327     O1333   2.413       .  S
Zr1327     O1335   2.378       .  S
Zr1327     O1336   2.382   1_554  S
Zr1327     O1337   2.400       .  S
Zr1327     O1338   2.404       .  S
Zr1327     O1328   2.440       .  S
O1328      H1384   0.990       .  S
O1328      H1392   0.990       .  S
O1329      C1349   1.284   1_554  A
O1330      C1351   1.284       .  A
O1331     Zr1341   2.438       .  S
O1331      C1350   1.286       .  A
O1332     Zr1340   2.424       .  S
O1332      C1351   1.284       .  A
O1333      C1350   1.282   1_554  A
O1334     Zr1342   2.420       .  S
O1334      C1349   1.282       .  A
O1335     Zr1340   2.390       .  S
O1335     Zr1342   2.378   1_554  S
O1336     Zr1341   2.388       .  S
O1336     Zr1342   2.375       .  S
O1336      H1371   0.966       .  S
O1337     Zr1340   2.395       .  S
O1337     Zr1357   2.396       .  S
O1337      H1374   0.966       .  S
O1338     Zr1341   2.390   1_554  S
O1338     Zr1357   2.394       .  S
Zr1339     O1358   2.426       .  S
Zr1339     O1366   2.438       .  S
Zr1339     O1354   2.434       .  S
Zr1339     O1345   2.397       .  S
Zr1339     O1346   2.403       .  S
Zr1339     O1347   2.378   1_556  S
Zr1339     O1348   2.382       .  S
Zr1339     O1364   2.445       .  S
Zr1340     O1353   2.424       .  S
Zr1340     O1346   2.393   1_554  S
Zr1340     O1347   2.387       .  S
Zr1340     O1359   2.436       .  S
Zr1340     O1352   2.435       .  S
Zr1341     O1367   2.431       .  S
Zr1341     O1345   2.393       .  S
Zr1341     O1348   2.387       .  S
Zr1341     O1343   2.434       .  S
Zr1341     O1365   2.435       .  S
Zr1342     O1345   2.395       .  S
Zr1342     O1346   2.392       .  S
Zr1342     O1368   2.434       .  S
Zr1342     O1369   2.435       .  S
Zr1342     O1344   2.437       .  S
O1343      H1380   0.990       .  S
O1344      H1375   0.990       .  S
O1344      H1389   0.990       .  S
O1346      H1372   0.966       .  S
O1347     Zr1357   2.373       .  S
O1348     Zr1357   2.376   1_556  S
O1348      H1373   0.966       .  S
C1349      C1439   1.477       .  S
C1350      C1397   1.483       .  S
C1351      C1523   1.496       .  S
O1352      H1388   0.990       .  S
O1353      C1355   1.283       .  A
O1354      C1355   1.286   1_556  A
C1355      C1408   1.494       .  S
O1356     Zr1357   2.439       .  S
O1356      H1385   0.990       .  S
Zr1357     O1362   2.428       .  S
Zr1357     O1360   2.436       .  S
Zr1357     O1361   2.439       .  S
O1358      C1363   1.283       .  A
O1359      H1376   0.990       .  S
O1359      H1391   0.990       .  S
O1360      H1377   0.990       .  S
O1361      H1381   0.990       .  S
O1361      H1390   0.989       .  S
O1362      C1363   1.283   1_554  A
C1363      C1481   1.468       .  S
O1364      H1383   0.990       .  S
O1364      H1387   0.990       .  S
O1365      H1379   0.990       .  S
O1365      H1386   0.989       .  S
O1366      C1370   1.285       .  A
O1367      C1370   1.284       .  A
O1368      H1378   0.990       .  S
O1369      H1382   0.990       .  S
C1370      C1509   1.473       .  S
C1393      C1394   1.406   1_556  A
C1393      C1398   1.399       .  A
C1393      H1400   1.084       .  S
C1394      C1395   1.413       .  A
C1395      C1396   1.402       .  A
C1395      N1402   1.436       .  S
C1396      C1397   1.407   1_554  A
C1396      H1401   1.084       .  S
C1397      C1398   1.412       .  A
C1398      N1399   1.434       .  S
N1399      O1403   1.263       .  A
N1399      O1404   1.262       .  A
N1402      O1405   1.262       .  A
N1402      O1406   1.263       .  A
C1407      C1408   1.407   1_556  A
C1407      C1412   1.400   1_655  A
C1407      H1414   1.083       .  S
C1408      C1409   1.418       .  A
C1409      C1410   1.401   1_655  A
C1409      N1416   1.433       .  S
C1410      C1411   1.407   1_554  A
C1410      H1415   1.083       .  S
C1411      C1412   1.418       .  A
C1412      N1413   1.432       .  S
N1413      O1417   1.262       .  A
N1413      O1418   1.262       .  A
N1416      O1419   1.262       .  A
N1416      O1420   1.262       .  A
C1421      C1422   1.404       .  A
C1421      C1426   1.405   1_556  A
C1421      H1428   1.084       .  S
C1422      C1423   1.415   1_556  A
C1423      C1424   1.403       .  A
C1423      N1430   1.440   1_554  S
C1424      C1425   1.403       .  A
C1424      H1429   1.084       .  S
C1425      C1426   1.415       .  A
C1426      N1427   1.440       .  S
N1427      O1431   1.263   1_554  A
N1427      O1432   1.263       .  A
N1430      O1433   1.262       .  A
N1430      O1434   1.263   1_556  A
C1435      C1436   1.405   1_554  A
C1435      C1440   1.405       .  A
C1435      H1442   1.084       .  S
C1436      C1437   1.416       .  A
C1437      C1438   1.401       .  A
C1437      N1444   1.437       .  S
C1438      C1439   1.402       .  A
C1438      H1443   1.084       .  S
C1439      C1440   1.415   1_556  A
C1440      N1441   1.440       .  S
N1441      O1445   1.263       .  A
N1441      O1446   1.263   1_554  A
N1444      O1447   1.261   1_556  A
N1444      O1448   1.263       .  A
C1449      C1454   1.405       .  A
C1449      H1456   1.084       .  S
C1450      C1451   1.420       .  A
C1451      C1452   1.408       .  A
C1451      N1458   1.449       .  S
C1452      H1457   1.084       .  S
C1453      C1454   1.417       .  A
C1454      N1455   1.443       .  S
N1455      O1459   1.263       .  A
N1455      O1460   1.261       .  A
N1458      O1461   1.261       .  A
N1458      O1462   1.263       .  A
C1463      C1464   1.405       .  A
C1463      C1468   1.404       .  A
C1463      H1470   1.084       .  S
C1465      C1466   1.398       .  A
C1465      N1472   1.428       .  S
C1466      C1467   1.405   1_556  A
C1466      H1471   1.084       .  S
C1468      N1469   1.434       .  S
N1469      O1473   1.263       .  A
N1469      O1474   1.263       .  A
N1472      O1475   1.262       .  A
C1477      C1478   1.402       .  A
C1477      C1482   1.404       .  A
C1477      H1484   1.084       .  S
C1478      C1479   1.417   1_556  A
C1479      C1480   1.405       .  A
C1479      N1486   1.446       .  S
C1480      C1481   1.402   1_554  A
C1480      H1485   1.084       .  S
C1481      C1482   1.416       .  A
C1482      N1483   1.445       .  S
N1483      O1487   1.263       .  A
N1483      O1488   1.261       .  A
N1486      O1489   1.261       .  A
N1486      O1490   1.263       .  A
C1491      C1492   1.405   1_554  A
C1491      C1496   1.403       .  A
C1491      H1498   1.084       .  S
C1492      C1493   1.413       .  A
C1493      C1494   1.401       .  A
C1493      N1500   1.432       .  S
C1494      C1495   1.405   1_556  A
C1494      H1499   1.084       .  S
C1495      C1496   1.414       .  A
C1496      N1497   1.433       .  S
N1497      O1501   1.262       .  A
N1497      O1502   1.262       .  A
N1500      O1503   1.262       .  A
N1500      O1504   1.262       .  A
C1505      C1506   1.402       .  A
C1505      C1510   1.407       .  A
C1505      H1512   1.084       .  S
C1506      C1507   1.416       .  A
C1507      C1508   1.406       .  A
C1507      N1514   1.442       .  S
C1508      C1509   1.402       .  A
C1508      H1513   1.084       .  S
C1509      C1510   1.416       .  A
C1510      N1511   1.443       .  S
N1511      O1515   1.263       .  A
N1511      O1516   1.263       .  A
N1514      O1517   1.263       .  A
N1514      O1518   1.263       .  A
C1519      C1520   1.407       .  A
C1519      C1524   1.407       .  A
C1519      H1526   1.083       .  S
C1520      C1521   1.416       .  A
C1521      C1522   1.399       .  A
C1521      N1528   1.434       .  S
C1522      C1523   1.407       .  A
C1522      H1527   1.083       .  S
C1523      C1524   1.419       .  A
C1524      N1525   1.435       .  S
N1525      O1529   1.263       .  A
N1525      O1530   1.263       .  A
N1528      O1531   1.262       .  A
N1528      O1532   1.263       .  A
C1533      C1534   1.403       .  A
C1533      C1538   1.405       .  A
C1533      H1540   1.084       .  S
C1534      C1535   1.416       .  A
C1535      C1536   1.407       .  A
C1535      N1542   1.441       .  S
C1536      C1537   1.403       .  A
C1536      H1541   1.084       .  S
C1537      C1538   1.414       .  A
C1538      N1539   1.442       .  S
N1539      O1543   1.263       .  A
N1539      O1544   1.262       .  A
N1542      O1545   1.262       .  A
N1542      O1546   1.263       .  A
C1547      C1548   1.405       .  A
C1547      C1552   1.409       .  A
C1547      H1554   1.084       .  S
C1548      C1549   1.416       .  A
C1549      C1550   1.405       .  A
C1549      N1556   1.437       .  S
C1550      C1551   1.403       .  A
C1550      H1555   1.084       .  S
C1551      C1552   1.416       .  A
C1552      N1553   1.444       .  S
N1553      O1557   1.263       .  A
N1553      O1558   1.263       .  A
N1556      O1559   1.261       .  A
N1556      O1560   1.263       .  A
C1561      C1562   1.405       .  A
C1561      C1566   1.401       .  A
C1561      H1568   1.084       .  S
C1562      C1563   1.419       .  A
C1563      C1564   1.399       .  A
C1563      N1570   1.432       .  S
C1564      C1565   1.404       .  A
C1564      H1569   1.084       .  S
C1565      C1566   1.416       .  A
C1566      N1567   1.431       .  S
N1567      O1571   1.262       .  A
N1567      O1572   1.262       .  A
N1570      O1573   1.262       .  A
N1570      O1574   1.263       .  A
C1575      C1576   1.406       .  A
C1575      C1580   1.398   1_655  A
C1575      H1582   1.083       .  S
C1576      C1577   1.417       .  A
C1577      C1578   1.399   1_655  A
C1577      N1584   1.432       .  S
C1578      C1579   1.407       .  A
C1578      H1583   1.083       .  S
C1579      C1580   1.417       .  A
C1580      N1581   1.432       .  S
N1581      O1585   1.262       .  A
N1581      O1586   1.262       .  A
N1584      O1587   1.262       .  A
N1584      O1588   1.262       .  A
C1589      C1590   1.405       .  A
C1589      C1594   1.397       .  A
C1589      H1596   1.083       .  S
C1591      C1592   1.403       .  A
C1591      N1598   1.433       .  S
C1592      C1593   1.406   1_545  A
C1592      H1597   1.084       .  S
C1594      N1595   1.432       .  S
N1595      O1599   1.262       .  A
N1598      O1602   1.262   1_545  A
C1603      C1604   1.402       .  A
C1603      C1608   1.399       .  A
C1603      H1610   1.084       .  S
C1605      C1606   1.402       .  A
C1605      N1612   1.435       .  S
C1606      C1607   1.405   1_565  A
C1606      H1611   1.084       .  S
C1608      N1609   1.434       .  S
N1609      O1613   1.263       .  A
N1609      O1614   1.262       .  A
N1612      O1615   1.262       .  A
N1612      O1616   1.263       .  A
C1617      C1618   1.404       .  A
C1617      C1622   1.405       .  A
C1617      H1624   1.084       .  S
C1618      C1619   1.415       .  A
C1619      C1620   1.404       .  A
C1619      N1626   1.439       .  S
C1620      C1621   1.404       .  A
C1620      H1625   1.084       .  S
C1621      C1622   1.415       .  A
C1622      N1623   1.440       .  S
N1623      O1627   1.263       .  A
N1623      O1628   1.263       .  A
N1626      O1629   1.262       .  A
N1626      O1630   1.263       .  A
C1631      C1632   1.402       .  A
C1631      C1636   1.400       .  A
C1631      H1638   1.084       .  S
C1632      C1633   1.416       .  A
C1633      C1634   1.404       .  A
C1633      N1640   1.441       .  S
C1634      C1635   1.403       .  A
C1634      H1639   1.084       .  S
C1635      C1636   1.413       .  A
C1636      N1637   1.438       .  S
N1637      O1641   1.263       .  A
N1637      O1642   1.263       .  A
N1640      O1643   1.263       .  A
N1640      O1644   1.263       .  A
C1645      C1646   1.409   1_655  A
C1645      H1652   1.083       .  S
C1646      C1647   1.418       .  A
C1647      N1654   1.434       .  S
C1648      C1649   1.407   1_545  A
C1648      H1653   1.084       .  S
C1649      C1650   1.413   1_455  A
C1650      N1651   1.435       .  S
N1651      O1656   1.262       .  A
N1654      O1657   1.262       .  A
C1659      C1664   1.397       .  A
C1659      H1666   1.084       .  S
C1660      C1661   1.419       .  A
C1661      C1662   1.406       .  A
C1661      N1668   1.436       .  S
C1662      H1667   1.083       .  S
C1663      C1664   1.412   1_655  A
C1664      N1665   1.430       .  S
N1665      O1669   1.262       .  A
N1665      O1670   1.262       .  A
N1668      O1671   1.263       .  A
N1668      O1672   1.263       .  A
C1673      C1678   1.406       .  A
C1673      H1680   1.084       .  S
C1674      C1675   1.415       .  A
C1675      C1676   1.408       .  A
C1675      N1682   1.443       .  S
C1676      H1681   1.084       .  S
C1677      C1678   1.418       .  A
C1678      N1679   1.442       .  S
N1679      O1683   1.263       .  A
N1679      O1684   1.262       .  A
N1682      O1685   1.263       .  A
N1682      O1686   1.262       .  A
C1687      C1688   1.403       .  A
C1687      C1692   1.409       .  A
C1687      H1694   1.084       .  S
C1689      C1690   1.404       .  A
C1689      N1696   1.439       .  S
C1690      C1691   1.401   1_565  A
C1690      H1695   1.084       .  S
C1692      N1693   1.441       .  S
N1693      O1697   1.263       .  A
N1693      O1698   1.263       .  A
N1696      O1699   1.262       .  A
N1696      O1700   1.263       .  A
C1701      C1702   1.406       .  A
C1701      C1706   1.401       .  A
C1701      H1708   1.084       .  S
C1702      C1703   1.419       .  A
C1703      C1704   1.401       .  A
C1703      N1710   1.437       .  S
C1704      C1705   1.402       .  A
C1704      H1709   1.084       .  S
C1705      C1706   1.413       .  A
C1706      N1707   1.431       .  S
N1707      O1711   1.262       .  A
N1707      O1712   1.262       .  A
N1710      O1713   1.263       .  A
N1710      O1714   1.260       .  A
C1715      C1716   1.403       .  A
C1715      C1720   1.404       .  A
C1715      H1722   1.084       .  S
C1716      C1717   1.416       .  A
C1717      C1718   1.406       .  A
C1717      N1724   1.441       .  S
C1718      C1719   1.404       .  A
C1718      H1723   1.084       .  S
C1719      C1720   1.416       .  A
C1720      N1721   1.440       .  S
N1721      O1725   1.263       .  A
N1721      O1726   1.263       .  A
N1724      O1727   1.263       .  A
N1724      O1728   1.263       .  A
