geometry optimzed in LAMMPS
_audit_creation_date              2020-11-30 
_audit_creation_method            'lammps2cif' 
_symmetry_space_group_name_H-M    'P1' 
_symmetry_Int_Tables_number       1 
_symmetry_cell_setting            triclinic 
loop_ 
_symmetry_equiv_pos_as_xyz 
  x,y,z 
_cell_length_a                    61.0043174 
_cell_length_b                    61.02296683207615 
_cell_length_c                    61.02636745574083 
_cell_angle_alpha                 90.03109074269052 
_cell_angle_beta                  89.94108542814229 
_cell_angle_gamma                 90.11928677538121 
loop_ 
_atom_site_label 
_atom_site_type_symbol 
_atom_site_fract_x 
_atom_site_fract_y 
_atom_site_fract_z 
_atom_site_charge 
O1          O  0.11664627  0.15769080  0.39388581    -0.73100
O2          O  0.12090046  0.09153382  0.39328625    -0.74100
O3          O  0.15178427  0.12647159  0.39529421    -0.62700
O4          O  0.08637851  0.12261680  0.39240317    -0.71100
O5          O  0.08794204  0.12219355  0.35607605    -0.70700
O6          O  0.15337482  0.12775268  0.35897821    -0.61900
O7          O  0.12329977  0.09233040  0.35704500    -0.74400
O8          O  0.11807625  0.15753424  0.35755401    -0.73200
Cu9        Cu  0.11890590  0.12455832  0.39502594     1.04600
Cu10       Cu  0.12073356  0.12495228  0.35619058     1.04300
C11         C  0.11655811  0.16799046  0.37561118     0.93100
C12         C  0.12266833  0.08151157  0.37493266     0.92200
C13         C  0.16292886  0.12777424  0.37760338     0.84400
C14         C  0.07680763  0.12187194  0.37382616     0.90700
O15         O  0.12891459  0.90756073  0.35018311    -0.73100
O16         O  0.12780197  0.84172971  0.34921716    -0.74100
O17         O  0.09556260  0.87514607  0.34634949    -0.62700
O18         O  0.16114073  0.87355127  0.35309422    -0.71100
O19         O  0.15769622  0.87557925  0.38928256    -0.70700
O20         O  0.09263034  0.87241170  0.38247803    -0.61900
O21         O  0.12705919  0.84141962  0.38562164    -0.74400
O22         O  0.12359725  0.90680033  0.38611390    -0.73200
Cu23       Cu  0.12850746  0.87457306  0.34839978     1.04600
Cu24       Cu  0.12507806  0.87408197  0.38710783     1.04300
C25         C  0.12596360  0.91761255  0.36834376     0.93100
C26         C  0.12786395  0.83127771  0.36734561     0.92200
C27         C  0.08372191  0.87347323  0.36355758     0.84400
C28         C  0.16968734  0.87418058  0.37220735     0.90700
O29         O  0.87066700  0.09094182  0.34887604    -0.73100
O30         O  0.86967318  0.15652631  0.35043825    -0.74100
O31         O  0.90309529  0.12424706  0.34909055    -0.62700
O32         O  0.83723319  0.12340951  0.35051575    -0.71100
O33         O  0.83813971  0.12132151  0.38683946    -0.70700
O34         O  0.90337419  0.12422044  0.38545391    -0.61900
O35         O  0.86988547  0.15559946  0.38680062    -0.74400
O36         O  0.87219782  0.09004026  0.38516572    -0.73200
Cu37       Cu  0.87010763  0.12379297  0.34843323     1.04600
Cu38       Cu  0.87087609  0.12276416  0.38731172     1.04300
C39         C  0.87191366  0.08009175  0.36673535     0.93100
C40         C  0.86981168  0.16642801  0.36887809     0.92200
C41         C  0.91359939  0.12459723  0.36720851     0.84400
C42         C  0.82735375  0.12212200  0.36895233     0.90700
O43         O  0.90871834  0.87331291  0.34266382    -0.73100
O44         O  0.84276996  0.87388286  0.34664102    -0.74100
O45         O  0.87599094  0.90623820  0.34501546    -0.62700
O46         O  0.87512233  0.84040684  0.34437469    -0.71100
O47         O  0.87856071  0.84017218  0.38061790    -0.70700
O48         O  0.87701309  0.90569359  0.38132946    -0.61900
O49         O  0.84471969  0.87183366  0.38292230    -0.74400
O50         O  0.91031061  0.87350783  0.37898373    -0.73200
Cu51       Cu  0.87558004  0.87345001  0.34337469     1.04600
Cu52       Cu  0.87770878  0.87282170  0.38220564     1.04300
C53         C  0.91991700  0.87336663  0.36036793     0.93100
C54         C  0.83339928  0.87282432  0.36535058     0.92200
C55         C  0.87652509  0.91638494  0.36332832     0.84400
C56         C  0.87690650  0.82997066  0.36244372     0.90700
O57         O  0.10236611  0.40815146  0.37829460    -0.73100
O58         O  0.09980447  0.34264621  0.37567740    -0.74100
O59         O  0.10070671  0.37388283  0.40970746    -0.62700
O60         O  0.10176099  0.37708266  0.34417140    -0.71100
O61         O  0.13811670  0.37622211  0.34461361    -0.70700
O62         O  0.13697334  0.37155225  0.41009053    -0.61900
O63         O  0.13616945  0.34109149  0.37480192    -0.74400
O64         O  0.13866014  0.40700979  0.37942332    -0.73200
Cu65       Cu  0.09992568  0.37548736  0.37694889     1.04600
Cu66       Cu  0.13877862  0.37394371  0.37728604     1.04300
C67         C  0.12082605  0.41802475  0.37908026     0.93100
C68         C  0.11749389  0.33154329  0.37477172     0.92200
C69         C  0.11865427  0.37187535  0.42028225     0.84400
C70         C  0.12010512  0.37734760  0.33403471     0.90700
O71         O  0.10429267  0.37515969  0.66086543    -0.73100
O72         O  0.10107856  0.37145917  0.59515955    -0.74100
O73         O  0.10233229  0.34032200  0.62997030    -0.62700
O74         O  0.10333988  0.40618648  0.62649997    -0.71100
O75         O  0.13966244  0.40552898  0.62566149    -0.70700
O76         O  0.13859177  0.34014646  0.62676236    -0.61900
O77         O  0.13739191  0.37173634  0.59348473    -0.74400
O78         O  0.14059927  0.37307839  0.65914631    -0.73200
Cu79       Cu  0.10146159  0.37333268  0.62815111     1.04600
Cu80       Cu  0.14030026  0.37267433  0.62619154     1.04300
C81         C  0.12292625  0.37428087  0.67033979     0.93100
C82         C  0.11877646  0.37079888  0.58393195     0.92200
C83         C  0.12044972  0.32988990  0.62866538     0.84400
C84         C  0.12172139  0.41629232  0.62600557     0.90700
O85         O  0.10925291  0.65854264  0.37168795    -0.73100
O86         O  0.10674930  0.59295748  0.37327906    -0.74100
O87         O  0.10813747  0.62655277  0.40541508    -0.62700
O88         O  0.10794318  0.62530293  0.33969034    -0.71100
O89         O  0.14430954  0.62357145  0.33973366    -0.70700
O90         O  0.14446127  0.62496810  0.40531609    -0.61900
O91         O  0.14307348  0.59173437  0.37336755    -0.74400
O92         O  0.14563923  0.65735033  0.37219851    -0.73200
Cu93       Cu  0.10674276  0.62589441  0.37252836     1.04600
Cu94       Cu  0.14563368  0.62440455  0.37261932     1.04300
C95         C  0.12780114  0.66827299  0.37171037     0.93100
C96         C  0.12454701  0.58193803  0.37372239     0.92200
C97         C  0.12633565  0.62578726  0.41576077     0.84400
C98         C  0.12612919  0.62410737  0.32937277     0.90700
O99         O  0.10770414  0.62502565  0.65519416    -0.73100
O100        O  0.10882796  0.62368390  0.58974649    -0.74100
O101        O  0.10716013  0.59120420  0.62334666    -0.62700
O102        O  0.10973882  0.65703943  0.62215050    -0.71100
O103        O  0.14612765  0.65570494  0.62172034    -0.70700
O104        O  0.14348178  0.59012664  0.62356467    -0.61900
O105        O  0.14514450  0.62200739  0.58984411    -0.74400
O106        O  0.14408299  0.62342685  0.65552896    -0.73200
Cu107      Cu  0.10708339  0.62426432  0.62251668     1.04600
Cu108      Cu  0.14597558  0.62278180  0.62266689     1.04300
C109        C  0.12576082  0.62431227  0.66568225     0.93100
C110        C  0.12702556  0.62281173  0.57939702     0.92200
C111        C  0.12501134  0.58024566  0.62398073     0.84400
C112        C  0.12834232  0.66670054  0.62193132     0.90700
O113        O  0.62027144  0.10439418  0.34429839    -0.73100
O114        O  0.62161668  0.10494007  0.41006634    -0.74100
O115        O  0.58761228  0.10517207  0.37801952    -0.62700
O116        O  0.65354986  0.10407390  0.37671592    -0.71100
O117        O  0.65400012  0.14043292  0.37516707    -0.70700
O118        O  0.58832391  0.14147852  0.37817409    -0.61900
O119        O  0.62263165  0.14127419  0.40950893    -0.74400
O120        O  0.61998787  0.14072866  0.34401647    -0.73200
Cu121      Cu  0.62066017  0.10335892  0.37727146     1.04600
Cu122      Cu  0.62120630  0.14222163  0.37672651     1.04300
C123        C  0.62033801  0.12249632  0.33373866     0.93100
C124        C  0.62273275  0.12325603  0.42016482     0.92200
C125        C  0.57750205  0.12351909  0.37846883     0.84400
C126        C  0.66411733  0.12212863  0.37557415     0.90700
O127        O  0.62582398  0.14310377  0.59401369    -0.73100
O128        O  0.62933430  0.14356251  0.65968887    -0.74100
O129        O  0.66011820  0.14269258  0.62487109    -0.62700
O130        O  0.59471709  0.14410885  0.62831027    -0.71100
O131        O  0.59374179  0.10779857  0.62717516    -0.70700
O132        O  0.65935398  0.10638385  0.62701631    -0.61900
O133        O  0.62642662  0.10727356  0.65992799    -0.74400
O134        O  0.62653377  0.10676546  0.59430973    -0.73200
Cu135      Cu  0.62750339  0.14464507  0.62675750     1.04600
Cu136      Cu  0.62648023  0.10578199  0.62713923     1.04300
C137        C  0.62603525  0.12484015  0.58376287     0.93100
C138        C  0.62819914  0.12545117  0.67014397     0.92200
C139        C  0.67008014  0.12432504  0.62543284     0.84400
C140        C  0.58382354  0.12621023  0.62782157     0.90700
O141        O  0.33624579  0.11249270  0.37996142    -0.73100
O142        O  0.40204324  0.11060809  0.37836393    -0.74100
O143        O  0.36960212  0.11156172  0.41176393    -0.62700
O144        O  0.36833139  0.11168770  0.34603290    -0.71100
O145        O  0.37080440  0.14795220  0.34607472    -0.70700
O146        O  0.36969093  0.14789065  0.41177151    -0.61900
O147        O  0.40324711  0.14688868  0.37937313    -0.74400
O148        O  0.33726938  0.14884022  0.37833896    -0.73200
Cu149      Cu  0.36903697  0.11032971  0.37898829     1.04600
Cu150      Cu  0.37029926  0.14916542  0.37888728     1.04300
C151        C  0.32641298  0.13093210  0.37937450     0.93100
C152        C  0.41311630  0.12841663  0.37892449     0.92200
C153        C  0.36950850  0.12972262  0.42219247     0.84400
C154        C  0.36951721  0.12984373  0.33563628     0.90700
O155        O  0.34356973  0.14621856  0.62987839    -0.73100
O156        O  0.40951796  0.14770226  0.62860905    -0.74100
O157        O  0.37587124  0.14690898  0.59638025    -0.62700
O158        O  0.37690056  0.14740378  0.66192950    -0.71100
O159        O  0.37825550  0.11103762  0.66220583    -0.70700
O160        O  0.37631788  0.11058438  0.59634995    -0.61900
O161        O  0.40978055  0.11137318  0.62845838    -0.74400
O162        O  0.34445786  0.10985564  0.62990302    -0.73200
Cu163      Cu  0.37646313  0.14834122  0.62917453     1.04600
Cu164      Cu  0.37723393  0.10946140  0.62924548     1.04300
C165        C  0.33364115  0.12774155  0.63004844     0.93100
C166        C  0.42006703  0.12960416  0.62841313     0.92200
C167        C  0.37568909  0.12875224  0.58594386     0.84400
C168        C  0.37782069  0.12933564  0.67241241     0.90700
O169        O  0.89293463  0.62460565  0.33670820    -0.73100
O170        O  0.89081668  0.62267206  0.40198920    -0.74100
O171        O  0.89222536  0.59073599  0.36822355    -0.62700
O172        O  0.89145610  0.65653172  0.37056463    -0.71100
O173        O  0.85508908  0.65628953  0.36966881    -0.70700
O174        O  0.85591887  0.59050744  0.36685958    -0.61900
O175        O  0.85446918  0.62190766  0.40130787    -0.74400
O176        O  0.85653083  0.62519223  0.33557924    -0.73200
Cu177      Cu  0.89310374  0.62365481  0.36942000     1.04600
Cu178      Cu  0.85421242  0.62343029  0.36832938     1.04300
C179        C  0.87507884  0.62527987  0.32585691     0.93100
C180        C  0.87245637  0.62209874  0.41204227     0.92200
C181        C  0.87414189  0.58017108  0.36716589     0.84400
C182        C  0.87321325  0.66680271  0.37032652     0.90700
O183        O  0.85440187  0.59376283  0.62053282    -0.73100
O184        O  0.85893583  0.65952011  0.61729921    -0.74100
O185        O  0.85605005  0.62515382  0.58641215    -0.62700
O186        O  0.85696990  0.62854587  0.65211054    -0.71100
O187        O  0.89309207  0.62410885  0.65181711    -0.70700
O188        O  0.89240779  0.62499276  0.58592929    -0.61900
O189        O  0.89521164  0.65729234  0.61923162    -0.74400
O190        O  0.89062414  0.59194168  0.61843602    -0.73200
Cu191      Cu  0.85530499  0.62683380  0.61916880     1.04600
Cu192      Cu  0.89409387  0.62449787  0.61887106     1.04300
C193        C  0.87197699  0.58241538  0.61935448     0.93100
C194        C  0.87777642  0.66872196  0.61777898     0.92200
C195        C  0.87407825  0.62490185  0.57576465     0.84400
C196        C  0.87512929  0.62654180  0.66232076     0.90700
O197        O  0.85597051  0.40584666  0.37501053    -0.73100
O198        O  0.85495020  0.34013079  0.37323469    -0.74100
O199        O  0.85582959  0.37198339  0.40718148    -0.62700
O200        O  0.85489907  0.37382349  0.34169898    -0.71100
O201        O  0.89120610  0.37157633  0.34118059    -0.70700
O202        O  0.89215521  0.37307149  0.40705360    -0.61900
O203        O  0.89133625  0.33965642  0.37487545    -0.74400
O204        O  0.89225533  0.40544351  0.37323931    -0.73200
Cu205      Cu  0.85416122  0.37298551  0.37437223     1.04600
Cu206      Cu  0.89303170  0.37245959  0.37409758     1.04300
C207        C  0.87423312  0.41609611  0.37375970     0.93100
C208        C  0.87300309  0.32959318  0.37380147     0.92200
C209        C  0.87402103  0.37222306  0.41755064     0.84400
C210        C  0.87288206  0.37259550  0.33107229     0.90700
O211        O  0.89070433  0.34288957  0.62618130    -0.73100
O212        O  0.88825506  0.40842480  0.62280708    -0.74100
O213        O  0.88950094  0.37760174  0.65749094    -0.62700
O214        O  0.88960872  0.37396654  0.59200551    -0.71100
O215        O  0.85330970  0.37222520  0.59184591    -0.70700
O216        O  0.85316468  0.37634685  0.65774753    -0.61900
O217        O  0.85194338  0.40739905  0.62266167    -0.74400
O218        O  0.85435846  0.34147993  0.62695654    -0.73200
Cu219      Cu  0.89073570  0.37577334  0.62466947     1.04600
Cu220      Cu  0.85189284  0.37433173  0.62482585     1.04300
C221        C  0.87292676  0.33179931  0.62690391     0.93100
C222        C  0.86984130  0.41833965  0.62195431     0.92200
C223        C  0.87139086  0.37749097  0.66802876     0.84400
C224        C  0.87157088  0.37248095  0.58150895     0.90700
O225        O  0.34217898  0.89488355  0.37792423    -0.73100
O226        O  0.40814751  0.89792799  0.37817010    -0.74100
O227        O  0.37533270  0.89718432  0.34495998    -0.62700
O228        O  0.37486013  0.89588823  0.41070288    -0.71100
O229        O  0.37660098  0.85962042  0.40972150    -0.70700
O230        O  0.37564778  0.86080960  0.34392222    -0.61900
O231        O  0.40922497  0.86164238  0.37621988    -0.74400
O232        O  0.34371291  0.85853680  0.37697514    -0.73200
Cu233      Cu  0.37509146  0.89775572  0.37793421     1.04600
Cu234      Cu  0.37641595  0.85890392  0.37671625     1.04300
C235        C  0.33260706  0.87621579  0.37752761     0.93100
C236        C  0.41910097  0.88011963  0.37708032     0.92200
C237        C  0.37515113  0.87927364  0.33409145     0.84400
C238        C  0.37555171  0.87749157  0.42064974     0.90700
O239        O  0.34395022  0.89037257  0.62739494    -0.73100
O240        O  0.40945890  0.89175891  0.62820344    -0.74100
O241        O  0.37712267  0.89112579  0.59525219    -0.62700
O242        O  0.37599035  0.89108787  0.66073790    -0.71100
O243        O  0.37807709  0.85477806  0.66106340    -0.70700
O244        O  0.37700800  0.85480514  0.59497421    -0.61900
O245        O  0.41038865  0.85544899  0.62745435    -0.74400
O246        O  0.34445644  0.85403962  0.62866960    -0.73200
Cu247      Cu  0.37662676  0.89229912  0.62793909     1.04600
Cu248      Cu  0.37750005  0.85344946  0.62805246     1.04300
C249        C  0.33381077  0.87205761  0.62796888     0.93100
C250        C  0.42034913  0.87390532  0.62755267     0.92200
C251        C  0.37709808  0.87307068  0.58467060     0.84400
C252        C  0.37690362  0.87303932  0.67127809     0.90700
O253        O  0.66043033  0.86167072  0.62411541    -0.73100
O254        O  0.59500272  0.86198788  0.62610695    -0.74100
O255        O  0.62676515  0.86187735  0.59237472    -0.62700
O256        O  0.62899041  0.86202955  0.65796619    -0.71100
O257        O  0.62716437  0.89837668  0.65801049    -0.70700
O258        O  0.62826740  0.89817887  0.59230816    -0.61900
O259        O  0.59464300  0.89827396  0.62464805    -0.74400
O260        O  0.66090868  0.89798407  0.62585206    -0.73200
Cu261      Cu  0.62775293  0.86066401  0.62515459     1.04600
Cu262      Cu  0.62775125  0.89951526  0.62519275     1.04300
C263        C  0.67108017  0.87967387  0.62499020     0.93100
C264        C  0.58436674  0.87998351  0.62535549     0.92200
C265        C  0.62744909  0.88000196  0.58191713     0.84400
C266        C  0.62837525  0.88021695  0.66831942     0.90700
O267        O  0.62432462  0.85897224  0.34226939    -0.73100
O268        O  0.62687332  0.86005423  0.40785083    -0.74100
O269        O  0.59285679  0.86090594  0.37608003    -0.62700
O270        O  0.65865038  0.85816970  0.37390682    -0.71100
O271        O  0.66010939  0.89448238  0.37258746    -0.70700
O272        O  0.59423978  0.89724280  0.37633145    -0.61900
O273        O  0.62900566  0.89632214  0.40736080    -0.74400
O274        O  0.62584212  0.89535715  0.34170457    -0.73200
Cu275      Cu  0.62561913  0.85827073  0.37507895     1.04600
Cu276      Cu  0.62732040  0.89712879  0.37450436     1.04300
C277        C  0.62487083  0.87700038  0.33168027     0.93100
C278        C  0.62836337  0.87830745  0.41802331     0.92200
C279        C  0.58314051  0.87943887  0.37645320     0.84400
C280        C  0.66976820  0.87591250  0.37264257     0.90700
O281        O  0.09401783  0.87409119  0.64259797    -0.73100
O282        O  0.15956167  0.87213151  0.64525241    -0.74100
O283        O  0.12752559  0.90590018  0.64446809    -0.62700
O284        O  0.12594902  0.84027022  0.64344801    -0.71100
O285        O  0.12954774  0.84084508  0.60725971    -0.70700
O286        O  0.12730996  0.90665567  0.60814513    -0.61900
O287        O  0.16097295  0.87498890  0.60896854    -0.74400
O288        O  0.09555000  0.87299380  0.60630378    -0.73200
Cu289      Cu  0.12670485  0.87306188  0.64521641     1.04600
Cu290      Cu  0.12837534  0.87384036  0.60639079     1.04300
C291        C  0.08439766  0.87394150  0.62400961     0.93100
C292        C  0.17054540  0.87359028  0.62749005     0.92200
C293        C  0.12727978  0.91669921  0.62652742     0.84400
C294        C  0.12805080  0.83017084  0.62522785     0.90700
O295        O  0.09461615  0.12521790  0.61367472    -0.73100
O296        O  0.16023422  0.12261671  0.61459636    -0.74100
O297        O  0.12615051  0.09133373  0.61329321    -0.62700
O298        O  0.12883937  0.15684074  0.61504302    -0.71100
O299        O  0.12587630  0.15622445  0.65131674    -0.70700
O300        O  0.12695314  0.09050123  0.64960400    -0.61900
O301        O  0.15955897  0.12406126  0.65096624    -0.74400
O302        O  0.09359236  0.12289591  0.64990745    -0.73200
Cu303      Cu  0.12747987  0.12405775  0.61290362     1.04600
Cu304      Cu  0.12651050  0.12337188  0.65174986     1.04300
C305        C  0.08365918  0.12411463  0.63151065     0.93100
C306        C  0.17023093  0.12322782  0.63294514     0.92200
C307        C  0.12636268  0.08050126  0.63118929     0.84400
C308        C  0.12735559  0.16686806  0.63336683     0.90700
O309        O  0.87862165  0.15798045  0.60611875    -0.73100
O310        O  0.87484552  0.09198722  0.60582226    -0.74100
O311        O  0.84398026  0.12672152  0.60511556    -0.62700
O312        O  0.90971475  0.12338503  0.60664820    -0.71100
O313        O  0.90867765  0.12494784  0.64292782    -0.70700
O314        O  0.84309083  0.12395674  0.64141346    -0.61900
O315        O  0.87617299  0.09192957  0.64216255    -0.74400
O316        O  0.87524362  0.15754158  0.64234954    -0.73200
Cu317      Cu  0.87684787  0.12502379  0.60461505     1.04600
Cu318      Cu  0.87580274  0.12463762  0.64346052     1.04300
C319        C  0.87695073  0.16812813  0.62437170     0.93100
C320        C  0.87509883  0.08157448  0.62401582     0.92200
C321        C  0.83322991  0.12528016  0.62302680     0.84400
C322        C  0.91963169  0.12390561  0.62509058     0.90700
O323        O  0.87920574  0.84126805  0.63670833    -0.73100
O324        O  0.87777998  0.90699584  0.64023680    -0.74100
O325        O  0.84550291  0.87383580  0.63976156    -0.62700
O326        O  0.91080743  0.87496894  0.63767666    -0.71100
O327        O  0.91010961  0.87660292  0.60137398    -0.70700
O328        O  0.84413224  0.87468197  0.60338026    -0.61900
O329        O  0.87598828  0.90843380  0.60393447    -0.74400
O330        O  0.87779741  0.84300479  0.60037970    -0.73200
Cu331      Cu  0.87833607  0.87413760  0.63984632     1.04600
Cu332      Cu  0.87698867  0.87574000  0.60097529     1.04300
C333        C  0.87895623  0.83181934  0.61799480     0.93100
C334        C  0.87647520  0.91806610  0.62252404     0.92200
C335        C  0.83451311  0.87433744  0.62198876     0.84400
C336        C  0.92085340  0.87614369  0.61937119     0.90700
O337        O  0.38824824  0.12766833  0.09613842    -0.73100
O338        O  0.38836760  0.13033719  0.16194459    -0.74100
O339        O  0.38883024  0.09620188  0.13032579    -0.62700
O340        O  0.38815590  0.16165612  0.12812799    -0.71100
O341        O  0.35175630  0.16122309  0.12715430    -0.70700
O342        O  0.35248935  0.09542482  0.13063681    -0.61900
O343        O  0.35193753  0.12965988  0.16174217    -0.74400
O344        O  0.35191414  0.12639160  0.09623431    -0.73200
Cu345      Cu  0.38967110  0.12897592  0.12909303     1.04600
Cu346      Cu  0.35075024  0.12819883  0.12893895     1.04300
C347        C  0.37005105  0.12650325  0.08578263     0.93100
C348        C  0.37007575  0.13029149  0.17213925     0.92200
C349        C  0.37086972  0.08541078  0.13089566     0.84400
C350        C  0.36988937  0.17177790  0.12746613     0.90700
O351        O  0.35135803  0.09593521  0.87776314    -0.73100
O352        O  0.35436984  0.16191046  0.87761065    -0.74100
O353        O  0.35497501  0.12911434  0.84500266    -0.62700
O354        O  0.35069011  0.12911243  0.91081946    -0.71100
O355        O  0.38699904  0.12858362  0.91244877    -0.70700
O356        O  0.39123700  0.12682414  0.84709913    -0.61900
O357        O  0.39067721  0.16050265  0.87934476    -0.74400
O358        O  0.38757002  0.09503070  0.88052656    -0.73200
Cu359      Cu  0.35153692  0.12905021  0.87773245     1.04600
Cu360      Cu  0.39033502  0.12765577  0.87994234     1.04300
C361        C  0.36919222  0.08504180  0.87918945     0.93100
C362        C  0.37297715  0.17158742  0.87830289     0.92200
C363        C  0.37373392  0.12803989  0.83571585     0.84400
C364        C  0.36838602  0.12910273  0.92203630     0.90700
O365        O  0.35452885  0.87700783  0.91066489    -0.73100
O366        O  0.35440398  0.87805795  0.84474907    -0.74100
O367        O  0.35486339  0.84472120  0.87709427    -0.62700
O368        O  0.35357513  0.91028230  0.87799370    -0.71100
O369        O  0.38991117  0.91094429  0.87711185    -0.70700
O370        O  0.39122897  0.84517912  0.87881047    -0.61900
O371        O  0.39079955  0.87693784  0.84511678    -0.74400
O372        O  0.39084656  0.87860010  0.91040190    -0.73200
Cu373      Cu  0.35304659  0.87750107  0.87765610     1.04600
Cu374      Cu  0.39194892  0.87799819  0.87783974     1.04300
C375        C  0.37280555  0.87758117  0.92093643     0.93100
C376        C  0.37272690  0.87728270  0.83461037     0.92200
C377        C  0.37315309  0.83461471  0.87801226     0.84400
C378        C  0.37154096  0.92103568  0.87744213     0.90700
O379        O  0.35641770  0.91086145  0.12738867    -0.73100
O380        O  0.35808181  0.84526341  0.12734999    -0.74100
O381        O  0.35589043  0.87795208  0.15999932    -0.62700
O382        O  0.35821472  0.87805407  0.09477432    -0.71100
O383        O  0.39455592  0.87877049  0.09509662    -0.70700
O384        O  0.39224876  0.87974332  0.16100758    -0.61900
O385        O  0.39446796  0.84619115  0.12795444    -0.74400
O386        O  0.39275537  0.91183861  0.12768772    -0.73200
Cu387      Cu  0.35591783  0.87799124  0.12732655     1.04600
Cu388      Cu  0.39481367  0.87913922  0.12802790     1.04300
C389        C  0.37433928  0.92175519  0.12755141     0.93100
C390        C  0.37652160  0.83537740  0.12740095     0.92200
C391        C  0.37371020  0.87918796  0.17082918     0.84400
C392        C  0.37647667  0.87832415  0.08453579     0.90700
O393        O  0.86997046  0.39246557  0.15794719    -0.73100
O394        O  0.87119840  0.39328490  0.09228227    -0.74100
O395        O  0.83789861  0.39186123  0.12485318    -0.62700
O396        O  0.90365948  0.39387155  0.12584662    -0.71100
O397        O  0.90465300  0.35757310  0.12463263    -0.70700
O398        O  0.83886140  0.35550317  0.12432733    -0.61900
O399        O  0.87187349  0.35696297  0.09181042    -0.74400
O400        O  0.87192802  0.35610406  0.15729642    -0.73200
Cu401      Cu  0.87065959  0.39415163  0.12520206     1.04600
Cu402      Cu  0.87185112  0.35527789  0.12448876     1.04300
C403        C  0.87090563  0.37410787  0.16791178     0.93100
C404        C  0.87157127  0.37523817  0.08163213     0.92200
C405        C  0.82799962  0.37338866  0.12467456     0.84400
C406        C  0.91458892  0.37601192  0.12550697     0.90700
O407        O  0.90873365  0.35650039  0.87378015    -0.73100
O408        O  0.84322360  0.35958070  0.87545290    -0.74100
O409        O  0.87493384  0.35853838  0.84166102    -0.62700
O410        O  0.87655223  0.35775409  0.90737766    -0.71100
O411        O  0.87852173  0.39403827  0.90770301    -0.70700
O412        O  0.87676961  0.39490932  0.84208372    -0.61900
O413        O  0.84456971  0.39590875  0.87641529    -0.74400
O414        O  0.91052926  0.39282039  0.87362614    -0.73200
Cu415      Cu  0.87583703  0.35684446  0.87453616     1.04600
Cu416      Cu  0.87767836  0.39570369  0.87495701     1.04300
C417        C  0.92002001  0.37415171  0.87330062     0.93100
C418        C  0.83351369  0.37807273  0.87652328     0.92200
C419        C  0.87562285  0.37685511  0.83155861     0.84400
C420        C  0.87742969  0.37581840  0.91795350     0.90700
O421        O  0.12320457  0.39855349  0.09468929    -0.73100
O422        O  0.11989713  0.39954884  0.16050746    -0.74100
O423        O  0.15451285  0.39982749  0.12945933    -0.62700
O424        O  0.08869885  0.39840860  0.12634277    -0.71100
O425        O  0.08942036  0.36209085  0.12734091    -0.70700
O426        O  0.15498010  0.36347223  0.12887983    -0.61900
O427        O  0.12174096  0.36317046  0.16085237    -0.74400
O428        O  0.12324104  0.36223603  0.09538643    -0.73200
Cu429      Cu  0.12154513  0.40038580  0.12769025     1.04600
Cu430      Cu  0.12232894  0.36150473  0.12812222     1.04300
C431        C  0.12371294  0.38016324  0.08460795     0.93100
C432        C  0.12065684  0.38144860  0.17095555     0.92200
C433        C  0.16512481  0.38178524  0.12962839     0.84400
C434        C  0.07863287  0.38001785  0.12669353     0.90700
O435        O  0.12988371  0.35502592  0.84446455    -0.73100
O436        O  0.12597785  0.35556570  0.91049260    -0.74100
O437        O  0.09492399  0.35335097  0.87556458    -0.62700
O438        O  0.16080548  0.35722943  0.87966321    -0.71100
O439        O  0.15876645  0.39352220  0.87782795    -0.70700
O440        O  0.09323018  0.38966428  0.87529309    -0.61900
O441        O  0.12462303  0.39184713  0.90968767    -0.74400
O442        O  0.12688076  0.39126152  0.84409426    -0.73200
Cu443      Cu  0.12798729  0.35398992  0.87756700     1.04600
Cu444      Cu  0.12583998  0.39279899  0.87677897     1.04300
C445        C  0.12845556  0.37306769  0.83388156     0.93100
C446        C  0.12487987  0.37392742  0.92054044     0.92200
C447        C  0.08371056  0.37101470  0.87458589     0.84400
C448        C  0.17010523  0.37600733  0.87915733     0.90700
O449        O  0.65009316  0.87363402  0.09247819    -0.73100
O450        O  0.64999053  0.87228764  0.15844122    -0.74100
O451        O  0.65071335  0.83994464  0.12501501    -0.62700
O452        O  0.64983182  0.90562726  0.12635405    -0.71100
O453        O  0.61349019  0.90514118  0.12672805    -0.70700
O454        O  0.61434847  0.83936740  0.12334224    -0.61900
O455        O  0.61365804  0.87047807  0.15792955    -0.74400
O456        O  0.61375239  0.87374557  0.09242944    -0.73200
Cu457      Cu  0.65143751  0.87286493  0.12554426     1.04600
Cu458      Cu  0.61255617  0.87216333  0.12512923     1.04300
C459        C  0.63191284  0.87407737  0.08202207     0.93100
C460        C  0.63167148  0.87113712  0.16856900     0.92200
C461        C  0.63269576  0.82931936  0.12382570     0.84400
C462        C  0.63157004  0.91580882  0.12694064     0.90700
O463        O  0.61409523  0.87430677  0.90736269    -0.73100
O464        O  0.61482518  0.87861279  0.84179539    -0.74100
O465        O  0.61436088  0.84358153  0.87217657    -0.62700
O466        O  0.61448473  0.90897655  0.87664229    -0.71100
O467        O  0.65081202  0.90902962  0.87554915    -0.70700
O468        O  0.65068200  0.84322858  0.87445722    -0.61900
O469        O  0.65116058  0.87653970  0.84197543    -0.74400
O470        O  0.65040993  0.87569415  0.90773465    -0.73200
Cu471      Cu  0.61318957  0.87632969  0.87448724     1.04600
Cu472      Cu  0.65206040  0.87611167  0.87492535     1.04300
C473        C  0.63214470  0.87486186  0.91798199     0.93100
C474        C  0.63307296  0.87803714  0.83154097     0.92200
C475        C  0.63242236  0.83305753  0.87286996     0.84400
C476        C  0.63264940  0.91941367  0.87657390     0.90700
O477        O  0.64981026  0.12668302  0.91007801    -0.73100
O478        O  0.65118795  0.12626855  0.84416183    -0.74100
O479        O  0.65124611  0.15924678  0.87728131    -0.62700
O480        O  0.65010281  0.09364161  0.87731804    -0.71100
O481        O  0.61376823  0.09377555  0.87783298    -0.70700
O482        O  0.61493144  0.15959069  0.87484040    -0.61900
O483        O  0.61483425  0.12488635  0.84369945    -0.74400
O484        O  0.61351542  0.12810794  0.90930608    -0.73200
Cu485      Cu  0.65185379  0.12643508  0.87722020     1.04600
Cu486      Cu  0.61299186  0.12664370  0.87640543     1.04300
C487        C  0.63143348  0.12767435  0.92013127     0.93100
C488        C  0.63314916  0.12510335  0.83355266     0.92200
C489        C  0.63324568  0.16977436  0.87593439     0.84400
C490        C  0.63188056  0.08328051  0.87771387     0.90700
O491        O  0.61162965  0.12277712  0.09457677    -0.73100
O492        O  0.61234044  0.12306723  0.16037148    -0.74100
O493        O  0.61088383  0.15550897  0.12712392    -0.62700
O494        O  0.61296109  0.08993788  0.12753380    -0.71100
O495        O  0.64929245  0.09073062  0.12691233    -0.70700
O496        O  0.64723779  0.15670311  0.12817612    -0.61900
O497        O  0.64877331  0.12304351  0.16027964    -0.74400
O498        O  0.64792848  0.12448600  0.09455036    -0.73200
Cu499      Cu  0.61070503  0.12273265  0.12744312     1.04600
Cu500      Cu  0.64959514  0.12376399  0.12743777     1.04300
C501        C  0.62975116  0.12403021  0.08413068     0.93100
C502        C  0.63058964  0.12307692  0.17062559     0.92200
C503        C  0.62871746  0.16647864  0.12763532     0.84400
C504        C  0.63132683  0.07989450  0.12721705     0.90700
O505        O  0.12233129  0.63327232  0.15528534    -0.73100
O506        O  0.12372985  0.63255449  0.08980783    -0.74100
O507        O  0.09036049  0.63078873  0.12157510    -0.62700
O508        O  0.15597579  0.63502447  0.12290396    -0.71100
O509        O  0.15833004  0.59876461  0.12297196    -0.70700
O510        O  0.09222642  0.59452164  0.12323305    -0.61900
O511        O  0.12524733  0.59627093  0.08992952    -0.74400
O512        O  0.12568333  0.59707121  0.15607306    -0.73200
Cu513      Cu  0.12302555  0.63411965  0.12244187     1.04600
Cu514      Cu  0.12543265  0.59534582  0.12308645     1.04300
C515        C  0.12400653  0.61541276  0.16606206     0.93100
C516        C  0.12455760  0.61440648  0.07942093     0.92200
C517        C  0.08089725  0.61209711  0.12195870     0.84400
C518        C  0.16757326  0.61760241  0.12287698     0.90700
O519        O  0.15798211  0.63974630  0.87139758    -0.73100
O520        O  0.09248677  0.63787425  0.87355273    -0.74100
O521        O  0.12619264  0.63757410  0.90550370    -0.62700
O522        O  0.12388004  0.63971705  0.83971783    -0.71100
O523        O  0.12651032  0.60343862  0.83883950    -0.70700
O524        O  0.12585475  0.60126426  0.90442723    -0.61900
O525        O  0.09304041  0.60162237  0.87132158    -0.74400
O526        O  0.15900673  0.60338973  0.87216671    -0.73200
Cu527      Cu  0.12511655  0.63998565  0.87260145     1.04600
Cu528      Cu  0.12612102  0.60114897  0.87162441     1.04300
C529        C  0.16886337  0.62189472  0.87179990     0.93100
C530        C  0.08232656  0.61959346  0.87243269     0.92200
C531        C  0.12619675  0.61908905  0.91539767     0.84400
C532        C  0.12503269  0.62181156  0.82893011     0.90700
O533        O  0.87471998  0.64180891  0.83740205    -0.73100
O534        O  0.87594860  0.63827457  0.90319448    -0.74100
O535        O  0.90824913  0.63944901  0.86978756    -0.62700
O536        O  0.84262913  0.64060268  0.87134318    -0.71100
O537        O  0.84195202  0.60438233  0.86779289    -0.70700
O538        O  0.90761431  0.60313052  0.86920337    -0.61900
O539        O  0.87394655  0.60204093  0.90146671    -0.74400
O540        O  0.87564855  0.60551521  0.83570638    -0.73200
Cu541      Cu  0.87542893  0.64130312  0.87046726     1.04600
Cu542      Cu  0.87476567  0.60250406  0.86846295     1.04300
C543        C  0.87527833  0.62414182  0.82613550     0.93100
C544        C  0.87475863  0.61967644  0.91276410     0.92200
C545        C  0.91835986  0.62112146  0.86955741     0.84400
C546        C  0.83195755  0.62264896  0.86978333     0.90700
O547        O  0.90782053  0.63260740  0.11814929    -0.73100
O548        O  0.84213029  0.63643418  0.12019265    -0.74100
O549        O  0.87558094  0.63590379  0.15192621    -0.62700
O550        O  0.87385711  0.63366387  0.08682624    -0.71100
O551        O  0.87098520  0.59745376  0.08748755    -0.70700
O552        O  0.87490760  0.59953885  0.15347012    -0.61900
O553        O  0.84030890  0.60015184  0.12284498    -0.74400
O554        O  0.90574452  0.59629722  0.11895598    -0.73200
Cu555      Cu  0.87496372  0.63588810  0.11924171     1.04600
Cu556      Cu  0.87292041  0.59705303  0.12069470     1.04300
C557        C  0.91715134  0.61384824  0.11815153     0.93100
C558        C  0.83095225  0.61882460  0.12211779     0.92200
C559        C  0.87536055  0.61818903  0.16301493     0.84400
C560        C  0.87194553  0.61545104  0.07673101     0.90700
O561        O  0.40396112  0.37734829  0.15056914    -0.73100
O562        O  0.33854790  0.38087568  0.14977272    -0.74100
O563        O  0.36975667  0.34595939  0.15114802    -0.62700
O564        O  0.37284590  0.41196034  0.14857501    -0.71100
O565        O  0.37325083  0.41037647  0.11228286    -0.70700
O566        O  0.36956203  0.34501520  0.11477803    -0.61900
O567        O  0.33874809  0.37914474  0.11338497    -0.74400
O568        O  0.40433605  0.37578546  0.11427163    -0.73200
Cu569      Cu  0.37126756  0.37909479  0.15130455     1.04600
Cu570      Cu  0.37152256  0.37756308  0.11242924     1.04300
C571        C  0.41453763  0.37585846  0.13257461     0.93100
C572        C  0.32837619  0.38048486  0.13152067     0.92200
C573        C  0.36913684  0.33512973  0.13319045     0.84400
C574        C  0.37333840  0.42159544  0.12995752     0.90700
O575        O  0.37370275  0.59564033  0.10486989    -0.73100
O576        O  0.37697667  0.66156077  0.10424584    -0.74100
O577        O  0.40791073  0.62701781  0.10615122    -0.62700
O578        O  0.34213745  0.63002359  0.10301917    -0.71100
O579        O  0.34073912  0.62838913  0.13935605    -0.70700
O580        O  0.40653994  0.62910249  0.14240816    -0.61900
O581        O  0.37336414  0.66174647  0.14045955    -0.74400
O582        O  0.37361890  0.59621365  0.14119633    -0.73200
Cu583      Cu  0.37523102  0.62860043  0.10327851     1.04600
Cu584      Cu  0.37351322  0.62894945  0.14210551     1.04300
C585        C  0.37341453  0.58549963  0.12320565     0.93100
C586        C  0.37546120  0.67200373  0.12233382     0.92200
C587        C  0.41763246  0.62761365  0.12468950     0.84400
C588        C  0.33109814  0.62891731  0.12080172     0.90700
O589        O  0.59221023  0.62586640  0.14224049    -0.73100
O590        O  0.65756378  0.62030919  0.14128896    -0.74100
O591        O  0.62802734  0.65588823  0.14125150    -0.62700
O592        O  0.62207312  0.59046508  0.14197304    -0.71100
O593        O  0.62315038  0.58980313  0.10566093    -0.70700
O594        O  0.62552358  0.65547442  0.10496415    -0.61900
O595        O  0.65723281  0.62165439  0.10494756    -0.74400
O596        O  0.59154139  0.62363174  0.10596873    -0.73200
Cu597      Cu  0.62496862  0.62315891  0.14294479     1.04600
Cu598      Cu  0.62434239  0.62263965  0.10409525     1.04300
C599        C  0.58147304  0.62506264  0.12429649     0.93100
C600        C  0.66776009  0.62051126  0.12301447     0.92200
C601        C  0.62755757  0.66601975  0.12294014     0.84400
C602        C  0.62195379  0.57973402  0.12397874     0.90700
O603        O  0.62259638  0.40494105  0.11249515    -0.73100
O604        O  0.61907285  0.33952664  0.11400523    -0.74100
O605        O  0.58828390  0.37372041  0.11439409    -0.62700
O606        O  0.65379551  0.37026369  0.11243587    -0.71100
O607        O  0.65478429  0.37351277  0.14868275    -0.70700
O608        O  0.58909074  0.37312287  0.15071227    -0.61900
O609        O  0.62224931  0.34026257  0.15026088    -0.74400
O610        O  0.62180072  0.40618121  0.14879642    -0.73200
Cu611      Cu  0.62091272  0.37212247  0.11208554     1.04600
Cu612      Cu  0.62201357  0.37329529  0.15092084     1.04300
C613        C  0.62228061  0.41598715  0.13028655     0.93100
C614        C  0.62051097  0.32957031  0.13231284     0.92200
C615        C  0.57827348  0.37350684  0.13279708     0.84400
C616        C  0.66461202  0.37158797  0.13030083     0.90700
O617        O  0.34242250  0.62692804  0.89303214    -0.73100
O618        O  0.40817526  0.62905024  0.89440591    -0.74100
O619        O  0.37471511  0.66090916  0.89412926    -0.62700
O620        O  0.37647926  0.59548753  0.89338440    -0.71100
O621        O  0.37757810  0.59553359  0.85705128    -0.70700
O622        O  0.37444858  0.66130704  0.85772579    -0.61900
O623        O  0.40859210  0.62984371  0.85807936    -0.74400
O624        O  0.34302591  0.62735023  0.85664062    -0.73200
Cu625      Cu  0.37535462  0.62810570  0.89499774     1.04600
Cu626      Cu  0.37590233  0.62852115  0.85609291     1.04300
C627        C  0.33237494  0.62685038  0.87466062     0.93100
C628        C  0.41878907  0.62957965  0.87635930     0.92200
C629        C  0.37445151  0.67142776  0.87605174     0.84400
C630        C  0.37779055  0.58513560  0.87523843     0.90700
O631        O  0.62464498  0.59336585  0.85635755    -0.73100
O632        O  0.62507589  0.65921307  0.85553464    -0.74100
O633        O  0.65793356  0.62586937  0.85513871    -0.62700
O634        O  0.59241560  0.62632538  0.85676267    -0.71100
O635        O  0.59322651  0.62662762  0.89309013    -0.70700
O636        O  0.65885086  0.62718717  0.89149893    -0.61900
O637        O  0.62618303  0.65966607  0.89191183    -0.74400
O638        O  0.62613625  0.59405311  0.89266387    -0.73200
Cu639      Cu  0.62502492  0.62621247  0.85466761     1.04600
Cu640      Cu  0.62612284  0.62690368  0.89355191     1.04300
C641        C  0.62510559  0.58330292  0.87470964     0.93100
C642        C  0.62571383  0.66978522  0.87361143     0.92200
C643        C  0.66873121  0.62644441  0.87306374     0.84400
C644        C  0.58242221  0.62632168  0.87515913     0.90700
O645        O  0.63001809  0.34359780  0.89678967    -0.73100
O646        O  0.62365391  0.40928129  0.89655202    -0.74100
O647        O  0.59409006  0.37334013  0.89615592    -0.62700
O648        O  0.65941394  0.37980501  0.89760870    -0.71100
O649        O  0.66005325  0.37800557  0.86124764    -0.70700
O650        O  0.59443542  0.37467673  0.85984015    -0.61900
O651        O  0.62516134  0.40924070  0.86023313    -0.74400
O652        O  0.62871727  0.34370828  0.86043810    -0.73200
Cu653      Cu  0.62675663  0.37651639  0.89805316     1.04600
Cu654      Cu  0.62716871  0.37643420  0.85917088     1.04300
C655        C  0.62999775  0.33329180  0.87853064     0.93100
C656        C  0.62348894  0.41963357  0.87833465     0.92200
C657        C  0.58387945  0.37334635  0.87788220     0.84400
C658        C  0.67004484  0.37939159  0.87960863     0.90700
O659        O  0.37709451  0.34539427  0.89659307    -0.73100
O660        O  0.37806208  0.41122583  0.89580351    -0.74100
O661        O  0.34443461  0.37871979  0.89633283    -0.62700
O662        O  0.41004898  0.37760848  0.89636976    -0.71100
O663        O  0.40986146  0.37638739  0.86003799    -0.70700
O664        O  0.34412669  0.38013229  0.86002095    -0.61900
O665        O  0.37924026  0.41099112  0.85948003    -0.74400
O666        O  0.37513746  0.34539966  0.86024404    -0.73200
Cu667      Cu  0.37734546  0.37829463  0.89754525     1.04600
Cu668      Cu  0.37706067  0.37821517  0.85867371     1.04300
C669        C  0.37604398  0.33506570  0.87841655     0.93100
C670        C  0.37933305  0.42150605  0.87757529     0.92200
C671        C  0.33385140  0.37967406  0.87829129     0.84400
C672        C  0.42033368  0.37649951  0.87817834     0.90700
C673        C  0.49045788  0.36380685  0.91653642    -0.18000
C674        C  0.51336774  0.36308008  0.91640350    -0.20200
C675        C  0.52507331  0.36756953  0.89710790     0.20500
C676        C  0.51360301  0.37254292  0.87767601    -0.03100
C677        C  0.49051350  0.37326827  0.87780594    -0.06100
C678        C  0.47890160  0.36901932  0.89736644     0.20800
C679        C  0.47907620  0.37842222  0.85839944     0.18900
C680        C  0.49075831  0.38272558  0.83906618    -0.17600
C681        C  0.51364420  0.38203731  0.83894571    -0.19800
C682        C  0.52519542  0.37702738  0.85815781     0.20400
C683        C  0.54814112  0.37673553  0.85824750    -0.32900
C684        C  0.55969871  0.37224763  0.87764773     0.01100
C685        C  0.54804007  0.36747246  0.89696835    -0.24200
C686        C  0.45595682  0.37015916  0.89741356    -0.28800
C687        C  0.44448213  0.37531089  0.87810727     0.06800
C688        C  0.45616072  0.37930669  0.85866209    -0.27400
H689        H  0.48178096  0.36041645  0.93166472     0.11500
H690        H  0.52194095  0.35916829  0.93144047     0.12600
H691        H  0.48219198  0.38671887  0.82404860     0.11700
H692        H  0.52231990  0.38553962  0.82384209     0.11000
H693        H  0.55699268  0.38047923  0.84329310     0.16400
H694        H  0.55683031  0.36387370  0.91196848     0.12300
H695        H  0.44703874  0.36691425  0.91244604     0.15100
H696        H  0.44742631  0.38335980  0.84374655     0.14900
C697        C  0.63373057  0.49077371  0.91524431    -0.18000
C698        C  0.63445655  0.51365146  0.91458605    -0.20200
C699        C  0.62867053  0.52490666  0.89541665     0.20500
C700        C  0.62184109  0.51303141  0.87677695    -0.03100
C701        C  0.62115145  0.48992444  0.87742725    -0.06100
C702        C  0.62726887  0.47877631  0.89672612     0.20800
C703        C  0.61471726  0.47798905  0.85868227     0.18900
C704        C  0.60841742  0.48928938  0.83967437    -0.17600
C705        C  0.60903333  0.51221324  0.83905389    -0.19800
C706        C  0.61597625  0.52421530  0.85742056     0.20400
C707        C  0.61727205  0.54717246  0.85675784    -0.32900
C708        C  0.62416266  0.55909588  0.87527063     0.01100
C709        C  0.62971649  0.54782053  0.89455801    -0.24200
C710        C  0.62729110  0.45582387  0.89705332    -0.28800
C711        C  0.62171489  0.44379810  0.87821856     0.06800
C712        C  0.61513538  0.45498912  0.85916367    -0.27400
H713        H  0.63845945  0.48244609  0.93018236     0.11500
H714        H  0.63968876  0.52254517  0.92904250     0.12600
H715        H  0.60326808  0.48038859  0.82519388     0.11700
H716        H  0.60430183  0.52054951  0.82412100     0.11000
H717        H  0.61274736  0.55575611  0.84189061     0.16400
H718        H  0.63503992  0.55687408  0.90889451     0.12300
H719        H  0.63235164  0.44731857  0.91179322     0.15100
H720        H  0.61054045  0.44580572  0.84465998     0.14900
C721        C  0.39657880  0.49149084  0.84001186    -0.18000
C722        C  0.39635319  0.51444714  0.83964209    -0.20200
C723        C  0.38870695  0.52632546  0.85781430     0.20500
C724        C  0.38187901  0.51494705  0.87678106    -0.03100
C725        C  0.38212403  0.49182933  0.87716162    -0.06100
C726        C  0.38918861  0.48002899  0.85857093     0.20800
C727        C  0.37489218  0.48054328  0.89602636     0.18900
C728        C  0.36785787  0.49238182  0.91442121    -0.17600
C729        C  0.36761958  0.51525191  0.91404573    -0.19800
C730        C  0.37439567  0.52663950  0.89526654     0.20400
C731        C  0.37343695  0.54951388  0.89458426    -0.32900
C732        C  0.37954876  0.56099063  0.87557719     0.01100
C733        C  0.38741606  0.54932062  0.85728974    -0.24200
C734        C  0.38839328  0.45701416  0.85879567    -0.28800
C735        C  0.38082029  0.44570260  0.87746149     0.06800
C736        C  0.37444693  0.45761155  0.89609708    -0.27400
H737        H  0.40225339  0.48269603  0.82566582     0.11500
H738        H  0.40185846  0.52290061  0.82502260     0.12600
H739        H  0.36230328  0.48394235  0.92902837     0.11700
H740        H  0.36188438  0.52403821  0.92837485     0.11000
H741        H  0.36744718  0.55837720  0.90877416     0.16400
H742        H  0.39248647  0.55810452  0.84269782     0.12300
H743        H  0.39360002  0.44792133  0.84444609     0.15100
H744        H  0.36862627  0.44903345  0.91053248     0.14900
C745        C  0.51181363  0.62876439  0.83618011    -0.18000
C746        C  0.48895017  0.62964415  0.83637891    -0.20200
C747        C  0.47746335  0.62915427  0.85628849     0.20500
C748        C  0.48906156  0.62762079  0.87621391    -0.03100
C749        C  0.51214161  0.62675882  0.87601471    -0.06100
C750        C  0.52352744  0.62742908  0.85589234     0.20800
C751        C  0.52380643  0.62538225  0.89592200     0.18900
C752        C  0.51227433  0.62460979  0.91581890    -0.17600
C753        C  0.48935902  0.62542241  0.91601672    -0.19800
C754        C  0.47761743  0.62702297  0.89631436     0.20400
C755        C  0.45464898  0.62796855  0.89633133    -0.32900
C756        C  0.44300086  0.62944878  0.87649022     0.01100
C757        C  0.45457024  0.63010106  0.85657053    -0.24200
C758        C  0.54644008  0.62699137  0.85580581    -0.28800
C759        C  0.55822296  0.62603893  0.87556768     0.06800
C760        C  0.54678308  0.62502535  0.89557264    -0.27400
H761        H  0.52034603  0.62925206  0.82060397     0.11500
H762        H  0.48024557  0.63075573  0.82095020     0.12600
H763        H  0.52098502  0.62348740  0.93124305     0.11700
H764        H  0.48082194  0.62487136  0.93158397     0.11000
H765        H  0.44586783  0.62737803  0.91177024     0.16400
H766        H  0.44576061  0.63119580  0.84119053     0.12300
H767        H  0.55509156  0.62767100  0.84029240     0.15100
H768        H  0.55573357  0.62412780  0.91088194     0.14900
C769        C  0.62840424  0.48487372  0.08809505    -0.18000
C770        C  0.62794141  0.50776913  0.08708191    -0.20200
C771        C  0.62405369  0.52018988  0.10604910     0.20500
C772        C  0.62040900  0.50942200  0.12619856    -0.03100
C773        C  0.62090019  0.48632988  0.12722441    -0.06100
C774        C  0.62497633  0.47401978  0.10808496     0.20800
C775        C  0.61744001  0.47558841  0.14741940     0.18900
C776        C  0.61327659  0.48799468  0.16632936    -0.17600
C777        C  0.61278949  0.51087138  0.16531281    -0.19800
C778        C  0.61648556  0.52171594  0.14538025     0.20400
C779        C  0.61663418  0.54463965  0.14438774    -0.32900
C780        C  0.62067828  0.55552924  0.12448005     0.01100
C781        C  0.62406436  0.54317197  0.10529620    -0.24200
C782        C  0.62554876  0.45108371  0.10926367    -0.28800
C783        C  0.62217030  0.44023360  0.12934198     0.06800
C784        C  0.61818236  0.45264142  0.14836188    -0.27400
H785        H  0.63152373  0.47564887  0.07324185     0.11500
H786        H  0.63075571  0.51576726  0.07148000     0.12600
H787        H  0.61049270  0.48000266  0.18193901     0.11700
H788        H  0.60968249  0.52009676  0.18016870     0.11000
H789        H  0.61381978  0.55400413  0.15922466     0.16400
H790        H  0.62714939  0.55141162  0.08986161     0.12300
H791        H  0.62865446  0.44168483  0.09450784     0.15100
H792        H  0.61543609  0.44444840  0.16388371     0.14900
C793        C  0.51064509  0.60984733  0.08857568    -0.18000
C794        C  0.48775045  0.60991244  0.08878403    -0.20200
C795        C  0.47630320  0.61767149  0.10715136     0.20500
C796        C  0.48798399  0.62500525  0.12570546    -0.03100
C797        C  0.51111523  0.62490357  0.12550936    -0.06100
C798        C  0.52245279  0.61749535  0.10675120     0.20800
C799        C  0.52287213  0.63236346  0.14397580     0.18900
C800        C  0.51138293  0.63971596  0.16251353    -0.17600
C801        C  0.48842862  0.63986775  0.16268708    -0.19800
C802        C  0.47656963  0.63264396  0.14433395     0.20400
C803        C  0.45353590  0.63315726  0.14413900    -0.32900
C804        C  0.44184090  0.62638108  0.12543843     0.01100
C805        C  0.45337891  0.61846116  0.10713293    -0.24200
C806        C  0.54539764  0.61789602  0.10643885    -0.28800
C807        C  0.55725516  0.62532161  0.12473309     0.06800
C808        C  0.54588295  0.63240202  0.14352018    -0.27400
H809        H  0.51912270  0.60395430  0.07412374     0.11500
H810        H  0.47898806  0.60409203  0.07447666     0.12600
H811        H  0.52015375  0.64546840  0.17684328     0.11700
H812        H  0.47994910  0.64576135  0.17713624     0.11000
H813        H  0.44474964  0.63922918  0.15834021     0.16400
H814        H  0.44449479  0.61292136  0.09277661     0.12300
H815        H  0.55403718  0.61216217  0.09200540     0.15100
H816        H  0.55492700  0.63812185  0.15770395     0.14900
C817        C  0.48500201  0.36946013  0.09353402    -0.18000
C818        C  0.50788646  0.36947053  0.09357588    -0.20200
C819        C  0.51945571  0.37129284  0.11333985     0.20500
C820        C  0.50791970  0.37282739  0.13331945    -0.03100
C821        C  0.48480940  0.37285026  0.13327592    -0.06100
C822        C  0.47334128  0.37132395  0.11325607     0.20800
C823        C  0.47320539  0.37465228  0.15319904     0.18900
C824        C  0.48481113  0.37607341  0.17300800    -0.17600
C825        C  0.50775368  0.37601376  0.17305227    -0.19800
C826        C  0.51945750  0.37452925  0.15329001     0.20400
C827        C  0.54246717  0.37479090  0.15310238    -0.32900
C828        C  0.55404411  0.37343571  0.13317988     0.01100
C829        C  0.54236884  0.37166835  0.11340799    -0.24200
C830        C  0.45041718  0.37200275  0.11322967    -0.28800
C831        C  0.43871344  0.37428550  0.13293906     0.06800
C832        C  0.45022659  0.37530808  0.15291112    -0.27400
H833        H  0.47641992  0.36819417  0.07804852     0.11500
H834        H  0.51654725  0.36818125  0.07811747     0.12600
H835        H  0.47614460  0.37739963  0.18845700     0.11700
H836        H  0.51634429  0.37726302  0.18853638     0.11000
H837        H  0.55132728  0.37611923  0.16843562     0.16400
H838        H  0.55111056  0.37049001  0.09797746     0.12300
H839        H  0.44171019  0.37101580  0.09778438     0.15100
H840        H  0.44134704  0.37691975  0.16821991     0.14900
C841        C  0.36673133  0.49377544  0.16598451    -0.18000
C842        C  0.36649486  0.51664835  0.16497209    -0.20200
C843        C  0.36960496  0.52744356  0.14491616     0.20500
C844        C  0.37280541  0.51510686  0.12562974    -0.03100
C845        C  0.37304161  0.49199836  0.12665128    -0.06100
C846        C  0.37007404  0.48131842  0.14695267     0.20800
C847        C  0.37628559  0.47960862  0.10740073     0.18900
C848        C  0.37922297  0.49043687  0.08730811    -0.17600
C849        C  0.37901961  0.51335554  0.08630043    -0.19800
C850        C  0.37585680  0.52584328  0.10536504     0.20400
C851        C  0.37582052  0.54884885  0.10456593    -0.32900
C852        C  0.37289628  0.56124585  0.12380540     0.01100
C853        C  0.36969230  0.55036160  0.14387506    -0.24200
C854        C  0.37045932  0.45837582  0.14790575    -0.28800
C855        C  0.37363067  0.44585776  0.12881618     0.06800
C856        C  0.37651119  0.45663219  0.10859537    -0.27400
H857        H  0.36435241  0.48582243  0.18167980     0.11500
H858        H  0.36395899  0.52590926  0.17991521     0.12600
H859        H  0.38171896  0.48117392  0.07236245     0.11700
H860        H  0.38138469  0.52131652  0.07060608     0.11000
H861        H  0.37830877  0.55707566  0.08901989     0.16400
H862        H  0.36729248  0.55972996  0.15878365     0.12300
H863        H  0.36807615  0.45026928  0.16353136     0.15100
H864        H  0.37894240  0.44715450  0.09376480     0.14900
C865        C  0.73819976  0.63999921  0.08864393    -0.18000
C866        C  0.76109035  0.64056743  0.08900838    -0.20200
C867        C  0.77264120  0.63075418  0.10624868     0.20500
C868        C  0.76105575  0.62040972  0.12342811    -0.03100
C869        C  0.73795362  0.62021191  0.12327051    -0.06100
C870        C  0.72650720  0.62986916  0.10566550     0.20800
C871        C  0.72633040  0.61031083  0.14066496     0.18900
C872        C  0.73790445  0.60051416  0.15793648    -0.17600
C873        C  0.76083914  0.60029202  0.15785584    -0.19800
C874        C  0.77255093  0.61011480  0.14064819     0.20400
C875        C  0.79553139  0.60965643  0.14017392    -0.32900
C876        C  0.80700929  0.61998027  0.12310033     0.01100
C877        C  0.79558104  0.63082126  0.10643793    -0.24200
C878        C  0.70356408  0.62935379  0.10543994    -0.28800
C879        C  0.69189411  0.61985269  0.12286506     0.06800
C880        C  0.70335075  0.61041895  0.14046724    -0.27400
H881        H  0.72963112  0.64754813  0.07506930     0.11500
H882        H  0.76977106  0.64850647  0.07569257     0.12600
H883        H  0.72921592  0.59286831  0.17141756     0.11700
H884        H  0.76941814  0.59243067  0.17124698     0.11000
H885        H  0.80452262  0.60142532  0.15308470     0.16400
H886        H  0.80459048  0.63863349  0.09324078     0.12300
H887        H  0.69476523  0.63684287  0.09196283     0.15100
H888        H  0.69437061  0.60300014  0.15390075     0.14900
C889        C  0.74015320  0.65100289  0.90181595    -0.18000
C890        C  0.76306570  0.65074605  0.90109836    -0.20200
C891        C  0.77407395  0.63730678  0.88603096     0.20500
C892        C  0.76190569  0.62391510  0.87159257    -0.03100
C893        C  0.73881002  0.62455812  0.87197211    -0.06100
C894        C  0.72789685  0.63807036  0.88725957     0.20800
C895        C  0.72665671  0.61173174  0.85701691     0.18900
C896        C  0.73765932  0.59798452  0.84223349    -0.17600
C897        C  0.76055281  0.59697553  0.84219266    -0.19800
C898        C  0.77280609  0.60994512  0.85670851     0.20400
C899        C  0.79576416  0.60931143  0.85650894    -0.32900
C900        C  0.80789912  0.62301499  0.87044634     0.01100
C901        C  0.79702605  0.63703176  0.88510033    -0.24200
C902        C  0.70492868  0.63843655  0.88766362    -0.28800
C903        C  0.69280892  0.62601759  0.87253172     0.06800
C904        C  0.70371834  0.61284073  0.85715530    -0.27400
H905        H  0.73201370  0.66145852  0.91363656     0.11500
H906        H  0.77218046  0.66102390  0.91236319     0.12600
H907        H  0.72855103  0.58795737  0.83074154     0.11700
H908        H  0.76868519  0.58619152  0.83066792     0.11000
H909        H  0.80422790  0.59856728  0.84516388     0.16400
H910        H  0.80646818  0.64741388  0.89602100     0.12300
H911        H  0.69645338  0.64866569  0.89946960     0.15100
H912        H  0.69430955  0.60307728  0.84565526     0.14900
C913        C  0.86424623  0.57843914  0.98204105    -0.18000
C914        C  0.86353769  0.57784638  0.00498089    -0.20200
C915        C  0.86729778  0.59693412  0.01728250     0.20500
C916        C  0.87151965  0.61687040  0.00629392    -0.03100
C917        C  0.87226731  0.61746372  0.98317935    -0.06100
C918        C  0.86872488  0.59813260  0.97098740     0.20800
C919        C  0.87668913  0.63739592  0.97229881     0.18900
C920        C  0.88017650  0.65654590  0.98453485    -0.17600
C921        C  0.87941326  0.65596593  0.00739656    -0.19800
C922        C  0.87519794  0.63621501  0.01838616     0.20400
C923        C  0.87489053  0.63549132  0.04127776    -0.32900
C924        C  0.87117812  0.61565423  0.05246193     0.01100
C925        C  0.86717786  0.59643202  0.04033395    -0.24200
C926        C  0.86973479  0.59885934  0.94798914    -0.28800
C927        C  0.87412726  0.61870954  0.93703201     0.06800
C928        C  0.87756721  0.63788046  0.94937363    -0.27400
H929        H  0.86139311  0.56345491  0.97294007     0.11500
H930        H  0.86018661  0.56241342  0.01310566     0.12600
H931        H  0.88356072  0.67197789  0.97641822     0.11700
H932        H  0.88225633  0.67095637  0.01649509     0.11000
H933        H  0.87793741  0.65044310  0.05038849     0.16400
H934        H  0.86414718  0.58110384  0.04878992     0.12300
H935        H  0.86695187  0.58400684  0.93863978     0.15100
H936        H  0.88097981  0.65325508  0.94114318     0.14900
C937        C  0.26172467  0.65548649  0.84787323    -0.18000
C938        C  0.23878187  0.65513183  0.84787109    -0.20200
C939        C  0.22731272  0.63955549  0.86035630     0.20500
C940        C  0.23907172  0.62432326  0.87315887    -0.03100
C941        C  0.26219762  0.62502146  0.87357409    -0.06100
C942        C  0.27357614  0.64049956  0.86063916     0.20800
C943        C  0.27391827  0.61020118  0.88689360     0.18900
C944        C  0.26245629  0.59463359  0.89937905    -0.17600
C945        C  0.23956486  0.59361595  0.89857288    -0.19800
C946        C  0.22773897  0.60835447  0.88551763     0.20400
C947        C  0.20478905  0.60742147  0.88462176    -0.32900
C948        C  0.19300149  0.62268503  0.87211261     0.01100
C949        C  0.20431358  0.63886346  0.86021035    -0.24200
C950        C  0.29658775  0.64071714  0.86075334    -0.28800
C951        C  0.30826789  0.62622178  0.87425394     0.06800
C952        C  0.29688740  0.61117033  0.88743542    -0.27400
H953        H  0.27020254  0.66754479  0.83795133     0.11500
H954        H  0.23000693  0.66692937  0.83795275     0.12600
H955        H  0.27121097  0.58312909  0.90965112     0.11700
H956        H  0.23109742  0.58133573  0.90823252     0.11000
H957        H  0.19604068  0.59511061  0.89401681     0.16400
H958        H  0.19520706  0.65060819  0.85050755     0.12300
H959        H  0.30543630  0.65244463  0.85072986     0.15100
H960        H  0.30597018  0.59992468  0.89773732     0.14900
C961        C  0.01222941  0.65973643  0.87336555    -0.18000
C962        C  0.98933574  0.65999874  0.87281509    -0.20200
C963        C  0.97747326  0.64032606  0.87151209     0.20500
C964        C  0.98876693  0.62017748  0.87073636    -0.03100
C965        C  0.01188535  0.61991489  0.87127205    -0.06100
C966        C  0.02362406  0.63980182  0.87260540     0.20800
C967        C  0.02322822  0.59978656  0.87046228     0.18900
C968        C  0.01133299  0.58011785  0.86913747    -0.17600
C969        C  0.98840179  0.58037422  0.86864207    -0.19800
C970        C  0.97697972  0.60030598  0.86944033     0.20400
C971        C  0.95399470  0.60071771  0.86899881    -0.32900
C972        C  0.94261585  0.62075297  0.86980532     0.01100
C973        C  0.95451923  0.64047997  0.87101603    -0.24200
C974        C  0.04655702  0.63945154  0.87310864    -0.28800
C975        C  0.05805045  0.61949210  0.87225077     0.06800
C976        C  0.04624097  0.59969825  0.87095007    -0.27400
H977        H  0.02103357  0.67514515  0.87437828     0.11500
H978        H  0.98090369  0.67559736  0.87342394     0.12600
H979        H  0.01976818  0.56452205  0.86849134     0.11700
H980        H  0.97959518  0.56496960  0.86763576     0.11000
H981        H  0.94498722  0.58541720  0.86804824     0.16400
H982        H  0.94593643  0.65600365  0.87166185     0.12300
H983        H  0.05545308  0.65481788  0.87408630     0.15100
H984        H  0.05492813  0.58423571  0.87025934     0.14900
C985        C  0.25820833  0.66026824  0.10451842    -0.18000
C986        C  0.23530964  0.65887838  0.10548223    -0.20200
C987        C  0.22502453  0.64003076  0.11381808     0.20500
C988        C  0.23794247  0.62241805  0.12131675    -0.03100
C989        C  0.26105147  0.62397004  0.12069900    -0.06100
C990        C  0.27124508  0.64294358  0.11212160     0.20800
C991        C  0.27393972  0.60658146  0.12877471     0.18900
C992        C  0.26367995  0.58766453  0.13693831    -0.17600
C993        C  0.24080617  0.58597259  0.13717705    -0.19800
C994        C  0.22778917  0.60326710  0.12947851     0.20400
C995        C  0.20481713  0.60174559  0.12981662    -0.32900
C996        C  0.19181360  0.61930208  0.12254092     0.01100
C997        C  0.20206776  0.63845622  0.11471391    -0.24200
C998        C  0.29426239  0.64430767  0.11153952    -0.28800
C999        C  0.30705408  0.62724531  0.12010084     0.06800
C1000       C  0.29685032  0.60848447  0.12869255    -0.27400
H1001       H  0.26572643  0.67497110  0.09795913     0.11500
H1002       H  0.22563016  0.67253624  0.09962305     0.12600
H1003       H  0.27335813  0.57415057  0.14312617     0.11700
H1004       H  0.23328814  0.57117020  0.14351089     0.11000
H1005       H  0.19705031  0.58699233  0.13599424     0.16400
H1006       H  0.19216853  0.65200628  0.10894192     0.12300
H1007       H  0.30222452  0.65881449  0.10502863     0.15100
H1008       H  0.30682953  0.59530741  0.13517770     0.14900
C1009       C  0.98646455  0.57843888  0.14045631    -0.18000
C1010       C  0.00941873  0.57817406  0.14108398    -0.20200
C1011       C  0.02164737  0.59425278  0.13001685     0.20500
C1012       C  0.01058144  0.61066603  0.11805659    -0.03100
C1013       C  0.98743399  0.61093341  0.11742025    -0.06100
C1014       C  0.97532059  0.59478737  0.12875198     0.20800
C1015       C  0.97643155  0.62756839  0.10572438     0.18900
C1016       C  0.98861656  0.64337396  0.09427750    -0.17600
C1017       C  0.01152180  0.64310531  0.09490280    -0.19800
C1018       C  0.02262370  0.62702603  0.10698026     0.20400
C1019       C  0.04554656  0.62721659  0.10838864    -0.32900
C1020       C  0.05671706  0.61108423  0.12041529     0.01100
C1021       C  0.04470044  0.59441460  0.13091246    -0.24200
C1022       C  0.95230465  0.59550165  0.12844554    -0.28800
C1023       C  0.94130041  0.61244983  0.11739183     0.06800
C1024       C  0.95345600  0.62832140  0.10595145    -0.27400
H1025       H  0.97741900  0.56594166  0.14927759     0.11500
H1026       H  0.01760806  0.56547574  0.15036945     0.12600
H1027       H  0.98042496  0.65612139  0.08506002     0.11700
H1028       H  0.02056127  0.65565375  0.08614646     0.11000
H1029       H  0.05476046  0.63992588  0.10002389     0.16400
H1030       H  0.05325570  0.58195427  0.14020969     0.12300
H1031       H  0.94295236  0.58325987  0.13733161     0.15100
H1032       H  0.94499835  0.64124776  0.09720900     0.14900
C1033       C  0.12958050  0.57709400  0.98474398    -0.18000
C1034       C  0.12914981  0.57636540  0.00767204    -0.20200
C1035       C  0.12716878  0.59573343  0.01993517     0.20500
C1036       C  0.12569955  0.61603686  0.00894726    -0.03100
C1037       C  0.12615632  0.61677346  0.98582804    -0.06100
C1038       C  0.12802957  0.59719880  0.97367543     0.20800
C1039       C  0.12465235  0.63709821  0.97489914     0.18900
C1040       C  0.12277284  0.65647281  0.98712658    -0.17600
C1041       C  0.12229772  0.65574279  0.01000750    -0.19800
C1042       C  0.12373170  0.63562938  0.02103980     0.20400
C1043       C  0.12326719  0.63482502  0.04396060    -0.32900
C1044       C  0.12477837  0.61469917  0.05512354     0.01100
C1045       C  0.12667011  0.59518200  0.04295946    -0.24200
C1046       C  0.12817994  0.59807421  0.95069014    -0.28800
C1047       C  0.12650439  0.61828292  0.93966437     0.06800
C1048       C  0.12490164  0.63772102  0.95194197    -0.27400
H1049       H  0.13106485  0.56190632  0.97565895     0.11500
H1050       H  0.13033371  0.56064016  0.01581387     0.12600
H1051       H  0.12160553  0.67220281  0.97898745     0.11700
H1052       H  0.12079559  0.67093147  0.01908595     0.11000
H1053       H  0.12176523  0.64998053  0.05310820     0.16400
H1054       H  0.12784879  0.57959359  0.05137628     0.12300
H1055       H  0.12952776  0.58298798  0.94140280     0.15100
H1056       H  0.12362400  0.65336818  0.94364595     0.14900
C1057       C  0.65786878  0.23784512  0.15201000    -0.18000
C1058       C  0.65609846  0.26063386  0.15349545    -0.20200
C1059       C  0.63901929  0.27165913  0.14282450     0.20500
C1060       C  0.62356591  0.25963661  0.13046167    -0.03100
C1061       C  0.62509432  0.23659886  0.12933583    -0.06100
C1062       C  0.64240814  0.22568334  0.14008143     0.20800
C1063       C  0.60927498  0.22450243  0.11754385     0.18900
C1064       C  0.59239686  0.23557298  0.10655244    -0.17600
C1065       C  0.59118006  0.25846358  0.10723692    -0.19800
C1066       C  0.60663569  0.27062913  0.11919346     0.20400
C1067       C  0.60559826  0.29358455  0.11998542    -0.32900
C1068       C  0.62081626  0.30552278  0.13249403     0.01100
C1069       C  0.63727654  0.29451474  0.14409187    -0.24200
C1070       C  0.64383341  0.20278448  0.13891646    -0.28800
C1071       C  0.62779679  0.19062042  0.12773542     0.06800
C1072       C  0.61056712  0.20155777  0.11707492    -0.27400
H1073       H  0.67123774  0.22970827  0.16035181     0.11500
H1074       H  0.66816047  0.26965422  0.16291934     0.12600
H1075       H  0.58017158  0.22652677  0.09736433     0.11700
H1076       H  0.57807957  0.26664494  0.09851697     0.11000
H1077       H  0.59292302  0.30219095  0.11101792     0.16400
H1078       H  0.64918489  0.30384322  0.15344331     0.12300
H1079       H  0.65705239  0.19436604  0.14724582     0.15100
H1080       H  0.59828403  0.19219378  0.10826264     0.14900
C1081       C  0.60702135  0.26293812  0.84630322    -0.18000
C1082       C  0.60719383  0.24003117  0.84611010    -0.20200
C1083       C  0.62018326  0.22840544  0.86105193     0.20500
C1084       C  0.63328496  0.23996445  0.87625183    -0.03100
C1085       C  0.63271636  0.26308530  0.87678353    -0.06100
C1086       C  0.61959003  0.27458701  0.86165073     0.20800
C1087       C  0.64513533  0.27466623  0.89253164     0.18900
C1088       C  0.65847628  0.26302030  0.90718033    -0.17600
C1089       C  0.65942499  0.24010687  0.90632758    -0.19800
C1090       C  0.64678792  0.22842643  0.89103456     0.20400
C1091       C  0.64717163  0.20542513  0.89041291    -0.32900
C1092       C  0.63361079  0.19388969  0.87577375     0.01100
C1093       C  0.62016479  0.20543145  0.86116955    -0.24200
C1094       C  0.61913747  0.29753312  0.86220775    -0.28800
C1095       C  0.63107033  0.30915142  0.87811798     0.06800
C1096       C  0.64394403  0.29765466  0.89333425    -0.27400
H1097       H  0.59686557  0.27154897  0.83458613     0.11500
H1098       H  0.59715046  0.23140159  0.83427029     0.12600
H1099       H  0.66820220  0.27163815  0.91929056     0.11700
H1100       H  0.66985839  0.23150373  0.91780414     0.11000
H1101       H  0.65748319  0.19645825  0.90174368     0.16400
H1102       H  0.60989391  0.19648657  0.84974193     0.12300
H1103       H  0.60909998  0.30638592  0.85054551     0.15100
H1104       H  0.65331308  0.30662848  0.90548563     0.14900
C1105       C  0.66990515  0.12936063  0.01403784    -0.18000
C1106       C  0.67014428  0.12995709  0.99114716    -0.20200
C1107       C  0.65046743  0.12914597  0.97929501     0.20500
C1108       C  0.63031177  0.12802467  0.99060799    -0.03100
C1109       C  0.63007178  0.12739105  0.01373233    -0.06100
C1110       C  0.64998621  0.12791988  0.02545787     0.20800
C1111       C  0.60995152  0.12602464  0.02508630     0.23700
C1112       C  0.59025104  0.12560035  0.01321830    -0.17600
C1113       C  0.59048596  0.12623499  0.99028850    -0.19800
C1114       C  0.61043040  0.12730869  0.97882940     0.20400
C1115       C  0.61086619  0.12745624  0.95582229    -0.32900
C1116       C  0.63094193  0.12820873  0.94441512     0.01100
C1117       C  0.65064574  0.12922085  0.95633263    -0.24200
C1118       C  0.64968993  0.12683841  0.04838682    -0.28800
C1119       C  0.62974944  0.12519541  0.05987124     0.06800
C1120       C  0.60991491  0.12495054  0.04807229    -0.27400
H1121       H  0.68532961  0.12986513  0.02281398     0.11500
H1122       H  0.68574981  0.13090092  0.98270082     0.12600
H1123       H  0.57464802  0.12463067  0.02167151     0.11700
H1124       H  0.57506454  0.12573363  0.98150947     0.11000
H1125       H  0.59557377  0.12672265  0.94682051     0.16400
H1126       H  0.66619620  0.12993230  0.94774712     0.12300
H1127       H  0.66506013  0.12719139  0.05727795     0.15100
H1128       H  0.59443518  0.12383931  0.05674763     0.14900
C1129       C  0.59945141  0.74101195  0.84569566    -0.18000
C1130       C  0.60037999  0.76392840  0.84567419    -0.20200
C1131       C  0.61555012  0.77503041  0.85895046     0.20500
C1132       C  0.62988882  0.76294874  0.87245065    -0.03100
C1133       C  0.62860071  0.73986750  0.87285776    -0.06100
C1134       C  0.61347764  0.72883463  0.85921931     0.20800
C1135       C  0.64245881  0.72784581  0.88690383     0.18900
C1136       C  0.65769648  0.73893059  0.90009819    -0.17600
C1137       C  0.65930768  0.76177453  0.89933226    -0.19800
C1138       C  0.64546010  0.77392192  0.88561861     0.20400
C1139       C  0.64671162  0.79685714  0.88505498    -0.32900
C1140       C  0.63206370  0.80895654  0.87212852     0.01100
C1141       C  0.61653383  0.79799183  0.85911631    -0.24200
C1142       C  0.61272177  0.70583722  0.85933191    -0.28800
C1143       C  0.62636779  0.69387377  0.87344795     0.06800
C1144       C  0.64095181  0.70494203  0.88738677    -0.27400
H1145       H  0.58769347  0.73281350  0.83520517     0.11500
H1146       H  0.58928123  0.77297236  0.83520404     0.12600
H1147       H  0.66847890  0.72991246  0.91091730     0.11700
H1148       H  0.67127499  0.76995674  0.90959771     0.11000
H1149       H  0.65856950  0.80534752  0.89522410     0.16400
H1150       H  0.60533333  0.80736318  0.84902569     0.12300
H1151       H  0.60133415  0.69723786  0.84873007     0.15100
H1152       H  0.65155007  0.69564092  0.89817629     0.14900
C1153       C  0.67213301  0.99018124  0.87733158    -0.18000
C1154       C  0.67198167  0.01308437  0.87729781    -0.20200
C1155       C  0.65207762  0.02455918  0.87767756     0.20500
C1156       C  0.63210790  0.01287775  0.87816501    -0.03100
C1157       C  0.63225806  0.98976445  0.87819618    -0.06100
C1158       C  0.65237423  0.97838468  0.87771429     0.20800
C1159       C  0.61229442  0.97806785  0.87858611     0.18900
C1160       C  0.59238847  0.98954771  0.87905805    -0.17600
C1161       C  0.59223843  0.01246454  0.87901722    -0.19800
C1162       C  0.61199855  0.02427313  0.87853821     0.20400
C1163       C  0.61200273  0.04725943  0.87840719    -0.32900
C1164       C  0.63186384  0.05902512  0.87793569     0.01100
C1165       C  0.65181890  0.04750644  0.87755856    -0.24200
C1166       C  0.65239619  0.95542025  0.87743061    -0.28800
C1167       C  0.63256106  0.94363521  0.87754946     0.06800
C1168       C  0.61257873  0.95510956  0.87830484    -0.27400
H1169       H  0.68770971  0.98169141  0.87697265     0.11500
H1170       H  0.68745516  0.02183421  0.87693461     0.12600
H1171       H  0.57691619  0.98079482  0.87937267     0.11700
H1172       H  0.57666061  0.02095526  0.87932234     0.11000
H1173       H  0.59653404  0.05596385  0.87866477     0.16400
H1174       H  0.66722356  0.05638976  0.87715169     0.12300
H1175       H  0.66787692  0.94674736  0.87692780     0.15100
H1176       H  0.59718867  0.94619407  0.87847326     0.14900
C1177       C  0.60664584  0.75999429  0.09173418    -0.18000
C1178       C  0.60629266  0.73709252  0.09131955    -0.20200
C1179       C  0.61855474  0.72502367  0.10652985     0.20500
C1180       C  0.63160703  0.73610829  0.12210194    -0.03100
C1181       C  0.63236377  0.75921623  0.12218860    -0.06100
C1182       C  0.61953099  0.77118860  0.10714747     0.20800
C1183       C  0.64574721  0.77032911  0.13746710     0.18900
C1184       C  0.65808765  0.75823535  0.15261596    -0.17600
C1185       C  0.65695133  0.73532580  0.15285005    -0.19800
C1186       C  0.64370390  0.72412327  0.13772798     0.20400
C1187       C  0.64219178  0.70117563  0.13803328    -0.32900
C1188       C  0.62925429  0.69009485  0.12251418     0.01100
C1189       C  0.61776750  0.70207605  0.10661415    -0.24200
C1190       C  0.61966507  0.79413885  0.10790813    -0.28800
C1191       C  0.63301034  0.80524779  0.12299291     0.06800
C1192       C  0.64629658  0.79332629  0.13748524    -0.27400
H1193       H  0.59680861  0.76895914  0.08001039     0.11500
H1194       H  0.59619784  0.72881465  0.07927380     0.12600
H1195       H  0.66841549  0.76650907  0.16446634     0.11700
H1196       H  0.66641816  0.72636712  0.16487931     0.11000
H1197       H  0.65125494  0.69190628  0.15015788     0.16400
H1198       H  0.60771856  0.69353028  0.09469550     0.12300
H1199       H  0.60958155  0.80341428  0.09661850     0.15100
H1200       H  0.65649879  0.80197866  0.14919636     0.14900
C1201       C  0.59271414  0.00920242  0.11883081    -0.18000
C1202       C  0.59264685  0.98629512  0.11901854    -0.20200
C1203       C  0.61193509  0.97467759  0.12354799     0.20500
C1204       C  0.63149980  0.98625854  0.12795738    -0.03100
C1205       C  0.63156605  0.00939927  0.12777015    -0.06100
C1206       C  0.61206239  0.02088432  0.12318502     0.20800
C1207       C  0.65112749  0.02101751  0.13210339     0.18900
C1208       C  0.67039602  0.00937505  0.13674744    -0.17600
C1209       C  0.67033468  0.98643492  0.13691733    -0.19800
C1210       C  0.65100638  0.97473567  0.13244599     0.20400
C1211       C  0.65086775  0.95173808  0.13223255    -0.32900
C1212       C  0.63144617  0.94006872  0.12771011     0.01100
C1213       C  0.61201141  0.95169541  0.12357132    -0.24200
C1214       C  0.61220783  0.04384608  0.12302840    -0.28800
C1215       C  0.63161413  0.05560431  0.12725658     0.06800
C1216       C  0.65105312  0.04404326  0.13172521    -0.27400
H1217       H  0.57760762  0.01779561  0.11525881     0.11500
H1218       H  0.57750217  0.97765797  0.11556733     0.12600
H1219       H  0.68554175  0.01801476  0.14018789     0.11700
H1220       H  0.68544300  0.97783581  0.14046344     0.11000
H1221       H  0.66591051  0.94292974  0.13558064     0.16400
H1222       H  0.59698813  0.94286861  0.12002131     0.12300
H1223       H  0.59716145  0.05257333  0.11948430     0.15100
H1224       H  0.66606723  0.05294730  0.13511366     0.14900
C1225       C  0.67088844  0.88296243  0.98858150    -0.18000
C1226       C  0.67084441  0.88302444  0.01149084    -0.20200
C1227       C  0.65136168  0.87922168  0.02312801     0.20500
C1228       C  0.63164870  0.87561858  0.01156818    -0.03100
C1229       C  0.63169458  0.87554242  0.98843430    -0.06100
C1230       C  0.65144776  0.87909722  0.97692051     0.20800
C1231       C  0.61202503  0.87178585  0.97685307     0.18900
C1232       C  0.59247511  0.86829802  0.98849818    -0.17600
C1233       C  0.59242860  0.86836973  0.01142870    -0.19800
C1234       C  0.61193520  0.87192790  0.02310530     0.20400
C1235       C  0.61211407  0.87167845  0.04609693    -0.32900
C1236       C  0.63178469  0.87490227  0.05775287     0.01100
C1237       C  0.65130689  0.87879024  0.04610550    -0.24200
C1238       C  0.65145300  0.87868118  0.95395728    -0.28800
C1239       C  0.63194610  0.87487615  0.94225527     0.06800
C1240       C  0.61226734  0.87152654  0.95385556    -0.27400
H1241       H  0.68617220  0.88582461  0.97997501     0.11500
H1242       H  0.68609640  0.88591638  0.02011617     0.12600
H1243       H  0.57722136  0.86542712  0.97986738     0.11700
H1244       H  0.57714096  0.86553562  0.02003694     0.11000
H1245       H  0.59695799  0.86868272  0.05489879     0.16400
H1246       H  0.66650242  0.88146077  0.05491578     0.12300
H1247       H  0.66667826  0.88145343  0.94520152     0.15100
H1248       H  0.59713522  0.86863007  0.94500686     0.14900
C1249       C  0.26385976  0.36304509  0.91557931    -0.18000
C1250       C  0.24093364  0.36220185  0.91563846    -0.20200
C1251       C  0.22896153  0.37013644  0.89770365     0.20500
C1252       C  0.24021915  0.37920003  0.87959333    -0.03100
C1253       C  0.26336978  0.37966155  0.87935762    -0.06100
C1254       C  0.27521701  0.37159531  0.89747259     0.20800
C1255       C  0.27463711  0.38802133  0.86093589     0.18900
C1256       C  0.26265502  0.39626882  0.84314152    -0.17600
C1257       C  0.23971532  0.39619948  0.84354481    -0.19800
C1258       C  0.22835630  0.38761610  0.86162778     0.20400
C1259       C  0.20536009  0.38704980  0.86195833    -0.32900
C1260       C  0.19415430  0.37748227  0.87963615     0.01100
C1261       C  0.20596047  0.36901829  0.89744450    -0.24200
C1262       C  0.29820632  0.37203581  0.89710266    -0.28800
C1263       C  0.30957912  0.37997248  0.87866016     0.06800
C1264       C  0.29766317  0.38790078  0.86060662    -0.27400
H1265       H  0.27272185  0.35679960  0.92961917     0.11500
H1266       H  0.23256243  0.35530725  0.92971132     0.12600
H1267       H  0.27103274  0.40279469  0.82889654     0.11700
H1268       H  0.23085105  0.40266791  0.82960833     0.11000
H1269       H  0.19614428  0.39346921  0.84820666     0.16400
H1270       H  0.19720470  0.36177472  0.91112299     0.12300
H1271       H  0.30726034  0.36576605  0.91102080     0.15100
H1272       H  0.30630996  0.39416377  0.84639129     0.14900
C1273       C  0.25820374  0.34556345  0.11374704    -0.18000
C1274       C  0.23531830  0.34553475  0.11399231    -0.20200
C1275       C  0.22379211  0.36343383  0.12262925     0.20500
C1276       C  0.23536771  0.38144677  0.13140011    -0.03100
C1277       C  0.25847335  0.38129489  0.13153619    -0.06100
C1278       C  0.26989929  0.36336865  0.12239300     0.20800
C1279       C  0.27013107  0.39907560  0.14072517     0.18900
C1280       C  0.25856246  0.41693118  0.14944904    -0.17600
C1281       C  0.23561965  0.41726745  0.14892505    -0.19800
C1282       C  0.22387140  0.39962806  0.13990850     0.20400
C1283       C  0.20085916  0.39983126  0.13916168    -0.32900
C1284       C  0.18928968  0.38186182  0.13046061     0.01100
C1285       C  0.20087869  0.36366731  0.12246271    -0.24200
C1286       C  0.29282638  0.36354697  0.12207210    -0.28800
C1287       C  0.30441827  0.38102765  0.13141619     0.06800
C1288       C  0.29312762  0.39864524  0.14093565    -0.27400
H1289       H  0.26676144  0.33164474  0.10681147     0.11500
H1290       H  0.22662160  0.33158816  0.10723228     0.12600
H1291       H  0.26726440  0.43071322  0.15653248     0.11700
H1292       H  0.22706295  0.43131137  0.15559606     0.11000
H1293       H  0.19196253  0.41380690  0.14555255     0.16400
H1294       H  0.19204007  0.34981211  0.11566434     0.12300
H1295       H  0.30171857  0.34989931  0.11496690     0.15100
H1296       H  0.30226746  0.41211158  0.14811324     0.14900
C1297       C  0.11977776  0.41602569  0.98956942    -0.18000
C1298       C  0.12011466  0.41703169  0.01246369    -0.20200
C1299       C  0.12260456  0.39787958  0.02491813     0.20500
C1300       C  0.12488057  0.37750928  0.01417243    -0.03100
C1301       C  0.12455863  0.37649518  0.99105080    -0.06100
C1302       C  0.12197946  0.39585924  0.97872634     0.20800
C1303       C  0.12680930  0.35613305  0.98029126     0.18900
C1304       C  0.12941652  0.33698911  0.99275763    -0.17600
C1305       C  0.12970922  0.33798797  0.01566605    -0.19800
C1306       C  0.12737731  0.35814495  0.02651066     0.20400
C1307       C  0.12727690  0.35923435  0.04946454    -0.32900
C1308       C  0.12468886  0.37943267  0.06034173     0.01100
C1309       C  0.12261889  0.39872439  0.04790853    -0.24200
C1310       C  0.12179020  0.39478013  0.95577688    -0.28800
C1311       C  0.12421209  0.37460153  0.94485221     0.06800
C1312       C  0.12655972  0.35530556  0.95728088    -0.27400
H1313       H  0.11780414  0.43104878  0.98033038     0.11500
H1314       H  0.11834656  0.43280003  0.02043484     0.12600
H1315       H  0.13121651  0.32122293  0.98478511     0.11700
H1316       H  0.13167945  0.32296646  0.02491124     0.11000
H1317       H  0.12905022  0.34426930  0.05885566     0.16400
H1318       H  0.12067262  0.41436796  0.05609792     0.12300
H1319       H  0.11990908  0.40974918  0.94641936     0.15100
H1320       H  0.12845564  0.33966502  0.94906893     0.14900
C1321       C  0.74090360  0.41259188  0.90121175    -0.18000
C1322       C  0.76386893  0.41264850  0.90036308    -0.20200
C1323       C  0.77519637  0.39572610  0.88963461     0.20500
C1324       C  0.76323517  0.37841134  0.87996462    -0.03100
C1325       C  0.74010794  0.37858539  0.88041854    -0.06100
C1326       C  0.72885957  0.39576480  0.89108847     0.20800
C1327       C  0.72825318  0.36167388  0.86994045     0.18900
C1328       C  0.73950796  0.34435402  0.85990892    -0.17600
C1329       C  0.76238730  0.34395392  0.85985474    -0.19800
C1330       C  0.77436130  0.36101700  0.86957297     0.20400
C1331       C  0.79727484  0.36106176  0.86882140    -0.32900
C1332       C  0.80933386  0.37850822  0.87780879     0.01100
C1333       C  0.79822244  0.39581574  0.88824842    -0.24200
C1334       C  0.70580490  0.39586221  0.89118128    -0.28800
C1335       C  0.69408970  0.37944129  0.88002793     0.06800
C1336       C  0.70534527  0.36243372  0.86951479    -0.27400
H1337       H  0.73255724  0.42587251  0.90951848     0.11500
H1338       H  0.77277141  0.42598043  0.90803078     0.12600
H1339       H  0.73060854  0.33116210  0.85199968     0.11700
H1340       H  0.77072911  0.33044813  0.85190976     0.11000
H1341       H  0.80575417  0.34768182  0.86077769     0.16400
H1342       H  0.80749081  0.40914074  0.89550761     0.12300
H1343       H  0.69698453  0.40891230  0.89939173     0.15100
H1344       H  0.69618065  0.34959912  0.86128006     0.14900
C1345       C  0.98944141  0.33579146  0.88960422    -0.18000
C1346       C  0.01238105  0.33517234  0.88954440    -0.20200
C1347       C  0.02454386  0.35244218  0.88038138     0.20500
C1348       C  0.01344509  0.37040245  0.87095118    -0.03100
C1349       C  0.99030756  0.37103799  0.87103172    -0.06100
C1350       C  0.97826007  0.35368583  0.88049438     0.20800
C1351       C  0.97925974  0.38919613  0.86194641     0.18900
C1352       C  0.99138626  0.40624313  0.85235800    -0.17600
C1353       C  0.01429567  0.40560927  0.85226612    -0.19800
C1354       C  0.02545404  0.38793227  0.86179099     0.20400
C1355       C  0.04839941  0.38772093  0.86272883    -0.32900
C1356       C  0.05957920  0.37015261  0.87254829     0.01100
C1357       C  0.04757620  0.35231604  0.88089963    -0.24200
C1358       C  0.95527132  0.35466091  0.88089165    -0.28800
C1359       C  0.94419786  0.37294820  0.87232025     0.06800
C1360       C  0.95630384  0.39010606  0.86280856    -0.27400
H1361       H  0.98043959  0.32234023  0.89694479     0.11500
H1362       H  0.02061582  0.32127465  0.89686597     0.12600
H1363       H  0.98315230  0.42020301  0.84514991     0.11700
H1364       H  0.02329845  0.41910926  0.84501623     0.11000
H1365       H  0.05759304  0.40136180  0.85596284     0.16400
H1366       H  0.05612705  0.33872345  0.88845295     0.12300
H1367       H  0.94600472  0.34140369  0.88828420     0.15100
H1368       H  0.94783032  0.40411572  0.85595302     0.14900
C1369       C  0.73522216  0.40471292  0.15043790    -0.18000
C1370       C  0.75808036  0.40533593  0.14907447    -0.20200
C1371       C  0.76948090  0.38902869  0.13757114     0.20500
C1372       C  0.75777487  0.37189489  0.12731464    -0.03100
C1373       C  0.73466980  0.37153290  0.12827759    -0.06100
C1374       C  0.72338783  0.38795737  0.14003657     0.20800
C1375       C  0.72286954  0.35482993  0.11740514     0.18900
C1376       C  0.73431579  0.33832950  0.10619320    -0.17600
C1377       C  0.75726350  0.33841651  0.10565605    -0.19800
C1378       C  0.76913948  0.35517782  0.11606436     0.20400
C1379       C  0.79215300  0.35557756  0.11540572    -0.32900
C1380       C  0.80383749  0.37281899  0.12531296     0.01100
C1381       C  0.79239017  0.38953965  0.13621676    -0.24200
C1382       C  0.70045882  0.38745969  0.14102711    -0.28800
C1383       C  0.68866179  0.37126925  0.12974334     0.06800
C1384       C  0.69985780  0.35503021  0.11789408    -0.27400
H1385       H  0.72678297  0.41745034  0.15947368     0.11500
H1386       H  0.76685740  0.41854194  0.15709640     0.12600
H1387       H  0.72551718  0.32532824  0.09786548     0.11700
H1388       H  0.76572109  0.32546597  0.09694903     0.11000
H1389       H  0.80096137  0.34271060  0.10690104     0.16400
H1390       H  0.80137696  0.40272772  0.14406703     0.12300
H1391       H  0.69171306  0.40000943  0.15006905     0.15100
H1392       H  0.69064218  0.34242985  0.10937121     0.14900
C1393       C  0.00900394  0.33952079  0.11740780    -0.18000
C1394       C  0.98608775  0.33894398  0.11737362    -0.20200
C1395       C  0.97397765  0.35790868  0.12205334     0.20500
C1396       C  0.98505161  0.37763758  0.12692187    -0.03100
C1397       C  0.00818944  0.37822438  0.12693699    -0.06100
C1398       C  0.02019823  0.35906963  0.12212338     0.20800
C1399       C  0.01928101  0.39798108  0.13166867     0.18900
C1400       C  0.00716320  0.41688008  0.13661670    -0.17600
C1401       C  0.98423197  0.41629195  0.13661677    -0.19800
C1402       C  0.97302512  0.39680445  0.13164671     0.20400
C1403       C  0.95002655  0.39617911  0.13118150    -0.32900
C1404       C  0.93886168  0.37660328  0.12616261     0.01100
C1405       C  0.95099915  0.35750261  0.12179797    -0.24200
C1406       C  0.04317659  0.35979349  0.12207264    -0.28800
C1407       C  0.05436864  0.37946050  0.12658702     0.06800
C1408       C  0.04227732  0.39849881  0.13135370    -0.27400
H1409       H  0.01798034  0.32467082  0.11368486     0.11500
H1410       H  0.97782814  0.32366455  0.11360997     0.12600
H1411       H  0.01542415  0.43215238  0.14039795     0.11700
H1412       H  0.97525465  0.43112938  0.14038463     0.11000
H1413       H  0.94083049  0.41093841  0.13475883     0.16400
H1414       H  0.94257251  0.34232881  0.11793661     0.12300
H1415       H  0.05234803  0.34504943  0.11835823     0.15100
H1416       H  0.05075682  0.41368591  0.13503623     0.14900
C1417       C  0.87245375  0.41538602  0.01131111    -0.18000
C1418       C  0.87353582  0.41544342  0.98842707    -0.20200
C1419       C  0.87448817  0.39564406  0.97676205     0.20500
C1420       C  0.87411817  0.37557694  0.98822227    -0.03100
C1421       C  0.87302646  0.37552048  0.01130268    -0.06100
C1422       C  0.87230990  0.39553046  0.02289185     0.20800
C1423       C  0.87280913  0.35545440  0.02276410     0.18900
C1424       C  0.87344236  0.33564850  0.01108911    -0.17600
C1425       C  0.87449452  0.33570627  0.98820738    -0.19800
C1426       C  0.87494225  0.35556732  0.97664362     0.20400
C1427       C  0.87621385  0.35576193  0.95371635    -0.32900
C1428       C  0.87670357  0.37570387  0.94217268     0.01100
C1429       C  0.87581249  0.39557652  0.95384458    -0.24200
C1430       C  0.87164413  0.39534192  0.04585073    -0.28800
C1431       C  0.87172796  0.37540249  0.05740265     0.06800
C1432       C  0.87214297  0.35552799  0.04570178    -0.27400
H1433       H  0.87184696  0.43088519  0.01996146     0.11500
H1434       H  0.87372026  0.43098534  0.97985154     0.12600
H1435       H  0.87323001  0.32010623  0.01966334     0.11700
H1436       H  0.87505044  0.32020569  0.97955427     0.11000
H1437       H  0.87678851  0.34035900  0.94487641     0.16400
H1438       H  0.87601581  0.41103583  0.94510628     0.12300
H1439       H  0.87123584  0.41073999  0.05470693     0.15100
H1440       H  0.87211383  0.34006222  0.05443036     0.14900
C1441       C  0.40759017  0.74287510  0.09918660    -0.18000
C1442       C  0.40814082  0.76579760  0.10045432    -0.20200
C1443       C  0.39270134  0.77713639  0.11321203     0.20500
C1444       C  0.37656796  0.76524626  0.12482498    -0.03100
C1445       C  0.37630752  0.74214258  0.12392775    -0.06100
C1446       C  0.39177209  0.73088680  0.11089280     0.20800
C1447       C  0.36057041  0.73032036  0.13612944     0.18900
C1448       C  0.34498628  0.74161635  0.14867790    -0.17600
C1449       C  0.34492108  0.76449553  0.14915146    -0.19800
C1450       C  0.36066077  0.77642775  0.13736464     0.20400
C1451       C  0.36075205  0.79935209  0.13794204    -0.32900
C1452       C  0.37693080  0.81127164  0.12673494     0.01100
C1453       C  0.39299436  0.80012538  0.11453104    -0.24200
C1454       C  0.39115378  0.70787008  0.10993656    -0.28800
C1455       C  0.37576564  0.69610837  0.12246436     0.06800
C1456       C  0.36066664  0.70739749  0.13559804    -0.27400
H1457       H  0.41962101  0.73451590  0.08915694     0.11500
H1458       H  0.42058474  0.77466532  0.09137078     0.12600
H1459       H  0.33276678  0.73274599  0.15805673     0.11700
H1460       H  0.33263975  0.77286336  0.15886643     0.11000
H1461       H  0.34842320  0.80796484  0.14740889     0.16400
H1462       H  0.40533969  0.80937127  0.10566702     0.12300
H1463       H  0.40292430  0.69908504  0.09993953     0.15100
H1464       H  0.34873317  0.69827222  0.14513335     0.14900
C1465       C  0.40300891  0.74148815  0.90436892    -0.18000
C1466       C  0.40313204  0.76441277  0.90435478    -0.20200
C1467       C  0.38859170  0.77607817  0.89092816     0.20500
C1468       C  0.37386960  0.76454799  0.87727290    -0.03100
C1469       C  0.37410489  0.74145286  0.87690589    -0.06100
C1470       C  0.38856726  0.72987776  0.89072405     0.20800
C1471       C  0.35984334  0.72995850  0.86273758     0.18900
C1472       C  0.34525703  0.74161106  0.84937436    -0.17600
C1473       C  0.34466028  0.76449350  0.85012221    -0.19800
C1474       C  0.35889474  0.77608449  0.86398079     0.20400
C1475       C  0.35848769  0.79901424  0.86470258    -0.32900
C1476       C  0.37336285  0.81054569  0.87793719     0.01100
C1477       C  0.38847616  0.79905685  0.89090091    -0.24200
C1478       C  0.38830349  0.70690787  0.89062263    -0.28800
C1479       C  0.37432780  0.69546856  0.87634787     0.06800
C1480       C  0.36034632  0.70701441  0.86227080    -0.27400
H1481       H  0.41427452  0.73283405  0.91499122     0.11500
H1482       H  0.41450169  0.77301939  0.91494733     0.12600
H1483       H  0.33418756  0.73301464  0.83845743     0.11700
H1484       H  0.33314428  0.77313538  0.83976715     0.11000
H1485       H  0.34695682  0.80794240  0.85458188     0.16400
H1486       H  0.39983977  0.80801951  0.90122785     0.12300
H1487       H  0.39924932  0.69789460  0.90130632     0.15100
H1488       H  0.34952432  0.69808888  0.85134310     0.14900
C1489       C  0.41428345  0.87322653  0.99025107    -0.18000
C1490       C  0.41492219  0.87355096  0.01316242    -0.20200
C1491       C  0.39549782  0.87556067  0.02533027     0.20500
C1492       C  0.37521961  0.87705616  0.01428313    -0.03100
C1493       C  0.37457131  0.87671573  0.99120212    -0.06100
C1494       C  0.39421085  0.87492550  0.97915062     0.20800
C1495       C  0.35427647  0.87832464  0.98020509     0.18900
C1496       C  0.33483928  0.88009426  0.99235001    -0.17600
C1497       C  0.33548066  0.88045463  0.01521599    -0.19800
C1498       C  0.35556541  0.87900552  0.02628002     0.20400
C1499       C  0.35627454  0.87948851  0.04915018    -0.32900
C1500       C  0.37635770  0.87804455  0.06033955     0.01100
C1501       C  0.39594935  0.87610905  0.04831989    -0.24200
C1502       C  0.39344422  0.87507081  0.95621620    -0.28800
C1503       C  0.37329597  0.87697579  0.94513268     0.06800
C1504       C  0.35376765  0.87835767  0.95726186    -0.27400
H1505       H  0.42950541  0.87177085  0.98120593     0.11500
H1506       H  0.43061836  0.87231292  0.02136308     0.12600
H1507       H  0.31913897  0.88131750  0.98415790     0.11700
H1508       H  0.32025712  0.88192393  0.02425602     0.11000
H1509       H  0.34107722  0.88102259  0.05823805     0.16400
H1510       H  0.41149920  0.87492211  0.05681950     0.12300
H1511       H  0.40859327  0.87378828  0.94700728     0.15100
H1512       H  0.33817848  0.87974112  0.94886796     0.14900
C1513       C  0.40903300  0.26430725  0.89937845    -0.18000
C1514       C  0.40891727  0.24136449  0.89884872    -0.20200
C1515       C  0.39204873  0.22998668  0.88806467     0.20500
C1516       C  0.37532968  0.24185056  0.87740086    -0.03100
C1517       C  0.37569493  0.26497433  0.87754350    -0.06100
C1518       C  0.39244395  0.27625772  0.88887767     0.20800
C1519       C  0.35920188  0.27678831  0.86645994     0.18900
C1520       C  0.34243896  0.26544142  0.85554759    -0.17600
C1521       C  0.34181889  0.24254832  0.85580936    -0.19800
C1522       C  0.35812541  0.23062590  0.86672858     0.20400
C1523       C  0.35743849  0.20768073  0.86725052    -0.32900
C1524       C  0.37400771  0.19575136  0.87781898     0.01100
C1525       C  0.39144649  0.20698045  0.88793097    -0.24200
C1526       C  0.39222883  0.29926537  0.88950669    -0.28800
C1527       C  0.37592759  0.31100305  0.87830548     0.06800
C1528       C  0.35967288  0.29974102  0.86659306    -0.27400
H1529       H  0.42209371  0.27270563  0.90801239     0.11500
H1530       H  0.42189218  0.23251352  0.90708899     0.12600
H1531       H  0.32966825  0.27428559  0.84698731     0.11700
H1532       H  0.32856854  0.23415844  0.84746195     0.11000
H1533       H  0.34412113  0.19906785  0.85921192     0.16400
H1534       H  0.40423523  0.19781872  0.89614701     0.12300
H1535       H  0.40492613  0.30807361  0.89830566     0.15100
H1536       H  0.34713331  0.30890071  0.85798780     0.14900
C1537       C  0.33121010  0.99089832  0.86896416    -0.18000
C1538       C  0.33076639  0.01384550  0.86939087    -0.20200
C1539       C  0.34986059  0.02584920  0.87408006     0.20500
C1540       C  0.36961609  0.01456612  0.87822520    -0.03100
C1541       C  0.37007806  0.99144278  0.87774374    -0.06100
C1542       C  0.35075942  0.97955105  0.87319928     0.20800
C1543       C  0.38987775  0.98024691  0.88188395     0.18900
C1544       C  0.40898857  0.99219865  0.88645778    -0.17600
C1545       C  0.40852258  0.01507198  0.88697173    -0.19800
C1546       C  0.38894907  0.02636889  0.88288355     0.20400
C1547       C  0.38846167  0.04927723  0.88332445    -0.32900
C1548       C  0.36892496  0.06074909  0.87916926     0.01100
C1549       C  0.34961342  0.04889634  0.87463764    -0.24200
C1550       C  0.35133769  0.95654772  0.87307502    -0.28800
C1551       C  0.37103254  0.94528594  0.87727162     0.06800
C1552       C  0.39024102  0.95729811  0.88150900    -0.27400
H1553       H  0.31623749  0.98201969  0.86537402     0.11500
H1554       H  0.31546836  0.02220462  0.86609724     0.12600
H1555       H  0.42430602  0.98384749  0.88968659     0.11700
H1556       H  0.42350170  0.02394202  0.89056563     0.11000
H1557       H  0.40343078  0.05818878  0.88689750     0.16400
H1558       H  0.33448409  0.05757111  0.87134488     0.12300
H1559       H  0.33646246  0.94742509  0.86965266     0.15100
H1560       H  0.40546288  0.94878361  0.88481602     0.14900
C1561       C  0.39384049  0.26381959  0.16216153    -0.18000
C1562       C  0.39472599  0.24096466  0.16060125    -0.20200
C1563       C  0.38245587  0.22985628  0.14461907     0.20500
C1564       C  0.36925680  0.24186313  0.12995112    -0.03100
C1565       C  0.36873516  0.26495075  0.13122763    -0.06100
C1566       C  0.38093231  0.27596898  0.14755260     0.20800
C1567       C  0.35608482  0.27699333  0.11612111     0.18900
C1568       C  0.34379737  0.26587970  0.10014871    -0.17600
C1569       C  0.34390217  0.24297033  0.09921761    -0.19800
C1570       C  0.35654375  0.23080801  0.11404493     0.20400
C1571       C  0.35663958  0.20780620  0.11334786    -0.32900
C1572       C  0.36987172  0.19586287  0.12784234     0.01100
C1573       C  0.38298358  0.20694241  0.14318113    -0.24200
C1574       C  0.38024971  0.29894061  0.14875827    -0.28800
C1575       C  0.36816042  0.31099650  0.13336428     0.06800
C1576       C  0.35611537  0.29994030  0.11712300    -0.27400
H1577       H  0.40337859  0.27200848  0.17470945     0.11500
H1578       H  0.40489233  0.23195804  0.17200614     0.12600
H1579       H  0.33401249  0.27491169  0.08843217     0.11700
H1580       H  0.33414893  0.23476477  0.08684667     0.11000
H1581       H  0.34668588  0.19918649  0.10140348     0.16400
H1582       H  0.39308782  0.19763873  0.15442966     0.12300
H1583       H  0.38975030  0.30747950  0.16111899     0.15100
H1584       H  0.34672523  0.30925471  0.10528090     0.14900
C1585       C  0.41255737  0.99315524  0.12552976    -0.18000
C1586       C  0.41210057  0.01603656  0.12646344    -0.20200
C1587       C  0.39212754  0.02714281  0.12889404     0.20500
C1588       C  0.37241926  0.01510848  0.13047609    -0.03100
C1589       C  0.37287972  0.99202941  0.12952489    -0.06100
C1590       C  0.39305144  0.98102387  0.12704244     0.20800
C1591       C  0.35316229  0.97999279  0.13102541     0.18900
C1592       C  0.33320270  0.99109925  0.13353631    -0.17600
C1593       C  0.33274531  0.01398245  0.13447122    -0.19800
C1594       C  0.35223909  0.02612267  0.13288019     0.20400
C1595       C  0.35187451  0.04907908  0.13339395    -0.32900
C1596       C  0.37142241  0.06119836  0.13149064     0.01100
C1597       C  0.39150696  0.05007519  0.12950438    -0.24200
C1598       C  0.39337793  0.95808573  0.12621040    -0.28800
C1599       C  0.37379745  0.94596375  0.12781626     0.06800
C1600       C  0.35374487  0.95706528  0.13009241    -0.27400
H1601       H  0.42817579  0.98494296  0.12361855     0.11500
H1602       H  0.42736970  0.02505455  0.12520805     0.12600
H1603       H  0.31792944  0.98208213  0.13475411     0.11700
H1604       H  0.31712329  0.02219389  0.13634572     0.11000
H1605       H  0.33632692  0.05749531  0.13503989     0.16400
H1606       H  0.40667189  0.05925411  0.12805603     0.12300
H1607       H  0.40891548  0.94968609  0.12438420     0.15100
H1608       H  0.33857302  0.94787123  0.13137102     0.14900
C1609       C  0.33091227  0.11489813  0.01567932    -0.18000
C1610       C  0.33037163  0.11596930  0.99275944    -0.20200
C1611       C  0.34899095  0.12260133  0.98093179     0.20500
C1612       C  0.36835353  0.12813965  0.99236205    -0.03100
C1613       C  0.36891812  0.12700152  0.01544778    -0.06100
C1614       C  0.35007423  0.12045914  0.02716717     0.20800
C1615       C  0.38833280  0.13251121  0.02678415     0.18900
C1616       C  0.40694518  0.13913627  0.01501048    -0.17600
C1617       C  0.40637549  0.14030374  0.99217093    -0.19800
C1618       C  0.38721636  0.13476723  0.98073720     0.20400
C1619       C  0.38675259  0.13547013  0.95785165    -0.32900
C1620       C  0.36772794  0.12959582  0.94625500     0.01100
C1621       C  0.34874190  0.12351374  0.95790350    -0.24200
C1622       C  0.35066411  0.11989904  0.05015551    -0.28800
C1623       C  0.36988720  0.12571772  0.06155800     0.06800
C1624       C  0.38873897  0.13163954  0.04970954    -0.27400
H1625       H  0.31630763  0.10979266  0.02443014     0.11500
H1626       H  0.31539057  0.11159049  0.98428299     0.12600
H1627       H  0.42194320  0.14348077  0.02347811     0.11700
H1628       H  0.42097376  0.14545018  0.98343018     0.11000
H1629       H  0.40137776  0.14042854  0.94902371     0.16400
H1630       H  0.33401188  0.11896199  0.94906771     0.12300
H1631       H  0.33609705  0.11512427  0.05916878     0.15100
H1632       H  0.40359822  0.13616403  0.05834788     0.14900
C1633       C  0.89495254  0.01123339  0.65826322    -0.18000
C1634       C  0.89521996  0.98832072  0.65809228    -0.20200
C1635       C  0.88473501  0.97665941  0.64126682     0.20500
C1636       C  0.87369331  0.98819575  0.62454419    -0.03100
C1637       C  0.87343396  0.01131288  0.62471114    -0.06100
C1638       C  0.88421980  0.02285592  0.64160321     0.20800
C1639       C  0.86266636  0.02285916  0.60781544     0.18900
C1640       C  0.85171928  0.01118183  0.59128886    -0.17600
C1641       C  0.85198185  0.98826267  0.59112001    -0.19800
C1642       C  0.86317153  0.97665395  0.60748294     0.20400
C1643       C  0.86422070  0.95372608  0.60695744    -0.32900
C1644       C  0.87532606  0.94216422  0.62345563     0.01100
C1645       C  0.88529775  0.95368942  0.64072370    -0.24200
C1646       C  0.88434337  0.04581435  0.64137976    -0.28800
C1647       C  0.87423835  0.05740868  0.62426134     0.06800
C1648       C  0.86329149  0.04585473  0.60760206    -0.27400
H1649       H  0.90330616  0.01987726  0.67134302     0.11500
H1650       H  0.90376609  0.97972055  0.67104026     0.12600
H1651       H  0.84318657  0.01977952  0.57833362     0.11700
H1652       H  0.84364053  0.97961490  0.57803616     0.11000
H1653       H  0.85627665  0.94484180  0.59376793     0.16400
H1654       H  0.89389903  0.94479396  0.65345240     0.12300
H1655       H  0.89277437  0.05468867  0.65427354     0.15100
H1656       H  0.85519379  0.05477046  0.59456547     0.14900
C1657       C  0.99186361  0.12716812  0.58816572    -0.18000
C1658       C  0.01476645  0.12744837  0.58915315    -0.20200
C1659       C  0.02556479  0.12567982  0.60936874     0.20500
C1660       C  0.01319424  0.12357912  0.62879262    -0.03100
C1661       C  0.99007293  0.12333158  0.62779783    -0.06100
C1662       C  0.97936766  0.12515405  0.60738169     0.20800
C1663       C  0.97769383  0.12134607  0.64722988     0.18900
C1664       C  0.98849708  0.11946489  0.66743452    -0.17600
C1665       C  0.01140624  0.11966993  0.66841393    -0.19800
C1666       C  0.02390635  0.12176855  0.64920576     0.20400
C1667       C  0.04690554  0.12206483  0.65004124    -0.32900
C1668       C  0.05936897  0.12411794  0.63071726     0.01100
C1669       C  0.04851159  0.12594956  0.61046026    -0.24200
C1670       C  0.95637465  0.12508139  0.60655355    -0.28800
C1671       C  0.94390412  0.12338228  0.62589897     0.06800
C1672       C  0.95473885  0.12140817  0.64615433    -0.27400
H1673       H  0.98391811  0.12859095  0.57235964     0.11500
H1674       H  0.02404272  0.12906069  0.57408791     0.12600
H1675       H  0.97921893  0.11789234  0.68250388     0.11700
H1676       H  0.01935280  0.11822822  0.68421882     0.11000
H1677       H  0.05507918  0.12061797  0.66573874     0.16400
H1678       H  0.05791117  0.12754638  0.59546246     0.12300
H1679       H  0.94820943  0.12660448  0.59086039     0.15100
H1680       H  0.94531146  0.11996120  0.66115268     0.14900
C1681       C  0.01521122  0.86798132  0.58241678    -0.18000
C1682       C  0.99229737  0.86831357  0.58169244    -0.20200
C1683       C  0.98010500  0.87292984  0.60064425     0.20500
C1684       C  0.99113351  0.87749270  0.62047383    -0.03100
C1685       C  0.01422515  0.87714061  0.62120807    -0.06100
C1686       C  0.02630075  0.87222069  0.60211063     0.20800
C1687       C  0.02519820  0.88144399  0.64110968     0.18900
C1688       C  0.01305069  0.88648454  0.65997036    -0.17600
C1689       C  0.99016919  0.88681220  0.65924884    -0.19800
C1690       C  0.97909843  0.88214076  0.63965056     0.20400
C1691       C  0.95619400  0.88181608  0.63897730    -0.32900
C1692       C  0.94504450  0.87702958  0.61937719     0.01100
C1693       C  0.95710045  0.87283011  0.60019209    -0.24200
C1694       C  0.04923190  0.87136948  0.60309973    -0.28800
C1695       C  0.06024616  0.87515880  0.62298729     0.06800
C1696       C  0.04810812  0.88039017  0.64187097    -0.27400
H1697       H  0.02426122  0.86422496  0.56760168     0.11500
H1698       H  0.98410680  0.86480755  0.56633727     0.12600
H1699       H  0.02124277  0.88995449  0.67533708     0.11700
H1700       H  0.98111812  0.89052935  0.67407759     0.11000
H1701       H  0.94702738  0.88527585  0.65381073     0.16400
H1702       H  0.94860954  0.86910398  0.58504281     0.12300
H1703       H  0.05847445  0.86745234  0.58843678     0.15100
H1704       H  0.05647951  0.88362862  0.65720318     0.14900
C1705       C  0.12171789  0.98825066  0.58886265    -0.18000
C1706       C  0.12149568  0.01116007  0.58955012    -0.20200
C1707       C  0.12363036  0.02224789  0.60959403     0.20500
C1708       C  0.12583036  0.01015461  0.62915968    -0.03100
C1709       C  0.12605068  0.98705175  0.62846616    -0.06100
C1710       C  0.12407128  0.97605777  0.60820871     0.20800
C1711       C  0.12834342  0.97498002  0.64803506     0.18900
C1712       C  0.13030092  0.98605612  0.66809175    -0.17600
C1713       C  0.13009266  0.00894596  0.66877635    -0.19800
C1714       C  0.12792158  0.02112876  0.64941726     0.20400
C1715       C  0.12793004  0.04408314  0.64996869    -0.32900
C1716       C  0.12596048  0.05627199  0.63052520     0.01100
C1717       C  0.12372166  0.04520365  0.61040176    -0.24200
C1718       C  0.12453148  0.95308399  0.60765733    -0.28800
C1719       C  0.12687384  0.94093632  0.62711200     0.06800
C1720       C  0.12870188  0.95204750  0.64723061    -0.27400
H1721       H  0.12012068  0.98006607  0.57318148     0.11500
H1722       H  0.11973990  0.02021275  0.57438461     0.12600
H1723       H  0.13205438  0.97700783  0.68325945     0.11700
H1724       H  0.13169838  0.01712866  0.68445863     0.11000
H1725       H  0.12964404  0.05244343  0.66555510     0.16400
H1726       H  0.12209658  0.05443597  0.59532118     0.12300
H1727       H  0.12301303  0.94468177  0.59207459     0.15100
H1728       H  0.13050581  0.94285943  0.66231759     0.14900
C1729       C  0.66278360  0.89404969  0.23956463    -0.18000
C1730       C  0.66124741  0.89570307  0.26236516    -0.20200
C1731       C  0.64374187  0.88585974  0.27360126     0.20500
C1732       C  0.62759877  0.87420470  0.26179014    -0.03100
C1733       C  0.62891914  0.87291006  0.23874715    -0.06100
C1734       C  0.64667345  0.88278175  0.22761060     0.20800
C1735       C  0.61243443  0.86184152  0.22686552     0.18900
C1736       C  0.59504235  0.85179939  0.23813827    -0.17600
C1737       C  0.59399731  0.85265446  0.26102929    -0.19800
C1738       C  0.61016352  0.86382982  0.27299855     0.20400
C1739       C  0.60930526  0.86475552  0.29596356    -0.32900
C1740       C  0.62521803  0.87656552  0.30766444     0.01100
C1741       C  0.64219972  0.88729559  0.29645668    -0.24200
C1742       C  0.64785366  0.88146834  0.20469979    -0.28800
C1743       C  0.63117539  0.87099524  0.19274160     0.06800
C1744       C  0.61354553  0.86117607  0.20392114    -0.27400
H1745       H  0.67648470  0.90174393  0.23125852     0.11500
H1746       H  0.67381486  0.90460392  0.27122769     0.12600
H1747       H  0.58227618  0.84321729  0.22924826     0.11700
H1748       H  0.58048197  0.84466708  0.26936695     0.11000
H1749       H  0.59620408  0.85652387  0.30474597     0.16400
H1750       H  0.65457870  0.89617576  0.30563615     0.12300
H1751       H  0.66137894  0.88920362  0.19612130     0.15100
H1752       H  0.60072751  0.85295817  0.19474299     0.14900
C1753       C  0.60288371  0.90711250  0.76261022    -0.18000
C1754       C  0.60246021  0.90770490  0.73970785    -0.20200
C1755       C  0.61648041  0.89423723  0.72744067     0.20500
C1756       C  0.63123271  0.88016523  0.73834169    -0.03100
C1757       C  0.63202979  0.87995866  0.76143529    -0.06100
C1758       C  0.61757961  0.89329992  0.77360381     0.20800
C1759       C  0.64716606  0.86629944  0.77233390     0.18900
C1760       C  0.66114043  0.85278086  0.76005944    -0.17600
C1761       C  0.66000539  0.85262183  0.73716954    -0.19800
C1762       C  0.64510415  0.86621349  0.72618001     0.20400
C1763       C  0.64378805  0.86608861  0.70325467    -0.32900
C1764       C  0.62932231  0.88023981  0.69236812     0.01100
C1765       C  0.61591750  0.89446821  0.70447683    -0.24200
C1766       C  0.61799973  0.89249391  0.79654693    -0.28800
C1767       C  0.63312610  0.87905197  0.80745511     0.06800
C1768       C  0.64787694  0.86623532  0.79530758    -0.27400
H1769       H  0.59174331  0.91749665  0.77173083     0.11500
H1770       H  0.59101723  0.91855123  0.73158592     0.12600
H1771       H  0.67280608  0.84217060  0.76817312     0.11700
H1772       H  0.67082107  0.84189231  0.72805300     0.11000
H1773       H  0.65429269  0.85529340  0.69382549     0.16400
H1774       H  0.60470824  0.90531504  0.69600508     0.12300
H1775       H  0.60673209  0.90249916  0.80596149     0.15100
H1776       H  0.65942814  0.85574176  0.80376207     0.14900
C1777       C  0.76281012  0.84210708  0.60382744    -0.18000
C1778       C  0.73991800  0.84272254  0.60460571    -0.20200
C1779       C  0.72909131  0.86019639  0.61490245     0.20500
C1780       C  0.74141212  0.87705658  0.62486147    -0.03100
C1781       C  0.76452715  0.87620078  0.62448176    -0.06100
C1782       C  0.77524743  0.85879890  0.61360788     0.20800
C1783       C  0.77689570  0.89282185  0.63481702     0.18900
C1784       C  0.76604841  0.91020178  0.64526949    -0.17600
C1785       C  0.74312361  0.91126980  0.64527071    -0.19800
C1786       C  0.73065238  0.89482988  0.63505097     0.20400
C1787       C  0.70764027  0.89584841  0.63477921    -0.32900
C1788       C  0.69529843  0.87903047  0.62493811     0.01100
C1789       C  0.70615644  0.86116575  0.61525803    -0.24200
C1790       C  0.79820464  0.85844685  0.61262800    -0.28800
C1791       C  0.81050743  0.87483467  0.62302523     0.06800
C1792       C  0.79987124  0.89181635  0.63432970    -0.27400
H1793       H  0.77078936  0.82857774  0.59556189     0.11500
H1794       H  0.73066488  0.82963487  0.59692912     0.12600
H1795       H  0.77530577  0.92309350  0.65326703     0.11700
H1796       H  0.73514533  0.92496131  0.65326447     0.11000
H1797       H  0.69933059  0.90951147  0.64250226     0.16400
H1798       H  0.69672299  0.84817049  0.60761388     0.12300
H1799       H  0.80654908  0.84529974  0.60407424     0.15100
H1800       H  0.80951780  0.90448875  0.64225717     0.14900
C1801       C  0.62146160  0.84004706  0.51176887    -0.18000
C1802       C  0.62194236  0.83975863  0.48887131    -0.20200
C1803       C  0.62553358  0.85916242  0.47706563     0.20500
C1804       C  0.62869311  0.87906532  0.48841864    -0.03100
C1805       C  0.62819850  0.87935902  0.51153071    -0.06100
C1806       C  0.62458767  0.85974173  0.52323193     0.20800
C1807       C  0.63129959  0.89926407  0.52290460     0.18900
C1808       C  0.63491784  0.91866395  0.51108813    -0.17600
C1809       C  0.63540796  0.91837110  0.48817336    -0.19800
C1810       C  0.63225812  0.89868096  0.47669437     0.20400
C1811       C  0.63241798  0.89829364  0.45371224    -0.32900
C1812       C  0.62904850  0.87854238  0.44226930     0.01100
C1813       C  0.62581894  0.85902161  0.45411034    -0.24200
C1814       C  0.62424143  0.86012930  0.54618469    -0.28800
C1815       C  0.62741711  0.87987847  0.55766916     0.06800
C1816       C  0.63081791  0.89940851  0.54588120    -0.27400
H1817       H  0.61865218  0.82485043  0.52051927     0.11500
H1818       H  0.61945793  0.82434948  0.48038669     0.12600
H1819       H  0.63736066  0.93407675  0.51957246     0.11700
H1820       H  0.63818405  0.93357261  0.47942110     0.11000
H1821       H  0.63501558  0.91341310  0.44475167     0.16400
H1822       H  0.62320715  0.84370977  0.44547224     0.12300
H1823       H  0.62151718  0.84500225  0.55509850     0.15100
H1824       H  0.63330135  0.91470969  0.55456953     0.14900
C1825       C  0.24104239  0.90784818  0.60881688    -0.18000
C1826       C  0.26394757  0.90766215  0.60902438    -0.20200
C1827       C  0.27531234  0.89008761  0.61849164     0.20500
C1828       C  0.26353474  0.87256112  0.62796009    -0.03100
C1829       C  0.24043310  0.87296779  0.62816559    -0.06100
C1830       C  0.22916341  0.89060192  0.61833469     0.20800
C1831       C  0.22862428  0.85571425  0.63813833     0.18900
C1832       C  0.23999615  0.83805967  0.64743319    -0.17600
C1833       C  0.26291204  0.83745667  0.64685200    -0.19800
C1834       C  0.27482761  0.85464209  0.63721967     0.20400
C1835       C  0.29782546  0.85430561  0.63679261    -0.32900
C1836       C  0.30962607  0.87192576  0.62774220     0.01100
C1837       C  0.29825448  0.88975632  0.61866902    -0.24200
C1838       C  0.20621625  0.89061305  0.61812412    -0.28800
C1839       C  0.19449698  0.87362225  0.62824467     0.06800
C1840       C  0.20566179  0.85636579  0.63845393    -0.27400
H1841       H  0.23261783  0.92151583  0.60127976     0.11500
H1842       H  0.27278278  0.92121741  0.60167226     0.12600
H1843       H  0.23115935  0.82465182  0.65505065     0.11700
H1844       H  0.27132437  0.82360395  0.65405168     0.11000
H1845       H  0.30654323  0.84058885  0.64391626     0.16400
H1846       H  0.30729043  0.90329842  0.61150766     0.12300
H1847       H  0.19742214  0.90392222  0.61032973     0.15100
H1848       H  0.19643634  0.84319060  0.64605737     0.14900
C1849       C  0.34858402  0.90557938  0.76300393    -0.18000
C1850       C  0.34961080  0.90527097  0.74011281    -0.20200
C1851       C  0.36280757  0.88990961  0.72922382     0.20500
C1852       C  0.37527540  0.87482485  0.74148901    -0.03100
C1853       C  0.37461889  0.87545721  0.76459041    -0.06100
C1854       C  0.36098413  0.89073799  0.77538044     0.20800
C1855       C  0.38756940  0.86078928  0.77687298     0.18900
C1856       C  0.40078222  0.84544211  0.76598634    -0.17600
C1857       C  0.40105279  0.84449390  0.74307972    -0.19800
C1858       C  0.38835927  0.85908845  0.73068227     0.20400
C1859       C  0.38853057  0.85827549  0.70768786    -0.32900
C1860       C  0.37636255  0.87346045  0.69542792     0.01100
C1861       C  0.36369963  0.88932710  0.70628534    -0.24200
C1862       C  0.36004922  0.89092963  0.79834300    -0.28800
C1863       C  0.37316767  0.87659268  0.81057080     0.06800
C1864       C  0.38702740  0.86171568  0.79981506    -0.27400
H1865       H  0.33814584  0.91748184  0.77103179     0.11500
H1866       H  0.33994477  0.91695190  0.73091063     0.12600
H1867       H  0.41079429  0.83406175  0.77519534     0.11700
H1868       H  0.41126083  0.83239194  0.73505344     0.11000
H1869       H  0.39845820  0.84615685  0.69931241     0.16400
H1870       H  0.35420195  0.90096573  0.69682907     0.12300
H1871       H  0.34953547  0.90253449  0.80673591     0.15100
H1872       H  0.39706016  0.85060005  0.80935232     0.14900
C1873       C  0.51219729  0.91685908  0.61938489    -0.18000
C1874       C  0.48927517  0.91591139  0.61964173    -0.20200
C1875       C  0.47841240  0.89585346  0.62277686     0.20500
C1876       C  0.49073783  0.87650687  0.62538099    -0.03100
C1877       C  0.51386193  0.87746506  0.62512170    -0.06100
C1878       C  0.52465493  0.89775976  0.62224582     0.20800
C1879       C  0.52615654  0.85812911  0.62788933     0.18900
C1880       C  0.51530465  0.83802335  0.63070202    -0.17600
C1881       C  0.49240741  0.83707429  0.63095134    -0.19800
C1882       C  0.47997922  0.85621912  0.62840334     0.20400
C1883       C  0.45700255  0.85544242  0.62897982    -0.32900
C1884       C  0.44459574  0.87471308  0.62671900     0.01100
C1885       C  0.45545924  0.89483495  0.62349790    -0.24200
C1886       C  0.54768267  0.89858773  0.62237037    -0.28800
C1887       C  0.56005577  0.87935335  0.62525089     0.06800
C1888       C  0.54909116  0.85920036  0.62790118    -0.27400
H1889       H  0.52018647  0.93256334  0.61706239     0.11500
H1890       H  0.48003516  0.93090653  0.61751947     0.12600
H1891       H  0.52453826  0.82302320  0.63280563     0.11700
H1892       H  0.48441664  0.82136671  0.63324925     0.11000
H1893       H  0.44880357  0.83985153  0.63140350     0.16400
H1894       H  0.44605723  0.90975989  0.62153251     0.12300
H1895       H  0.55594396  0.91418224  0.62019714     0.15100
H1896       H  0.55840655  0.84425784  0.63010557     0.14900
C1897       C  0.34518651  0.85158152  0.24121500    -0.18000
C1898       C  0.34594971  0.85109166  0.26412710    -0.20200
C1899       C  0.35958639  0.86562883  0.27564588     0.20500
C1900       C  0.37228025  0.88109771  0.26399094    -0.03100
C1901       C  0.37191398  0.88124227  0.24087695    -0.06100
C1902       C  0.35833946  0.86636501  0.22944476     0.20800
C1903       C  0.38543849  0.89599872  0.22922017     0.18900
C1904       C  0.39840650  0.91111595  0.24073648    -0.17600
C1905       C  0.39838346  0.91130901  0.26365025    -0.19800
C1906       C  0.38561779  0.89619676  0.27541113     0.20400
C1907       C  0.38615697  0.89574443  0.29837534    -0.32900
C1908       C  0.37412420  0.87992941  0.31000096     0.01100
C1909       C  0.36089279  0.86490202  0.29858709    -0.24200
C1910       C  0.35853697  0.86623398  0.20645910    -0.28800
C1911       C  0.37277835  0.88015641  0.19487181     0.06800
C1912       C  0.38602645  0.89512165  0.20627322    -0.27400
H1913       H  0.33462984  0.84011316  0.23268940     0.11500
H1914       H  0.33594796  0.83925885  0.27284109     0.12600
H1915       H  0.40870595  0.92268199  0.23201923     0.11700
H1916       H  0.40864114  0.92304665  0.27217895     0.11000
H1917       H  0.39636735  0.90731274  0.30721473     0.16400
H1918       H  0.35136415  0.85289583  0.30761685     0.12300
H1919       H  0.34822698  0.85478716  0.19757720     0.15100
H1920       H  0.39666203  0.90615316  0.19723861     0.14900
C1921       C  0.51286150  0.91469831  0.39706346    -0.18000
C1922       C  0.48989018  0.91483551  0.39705351    -0.20200
C1923       C  0.47806932  0.89801620  0.38666427     0.20500
C1924       C  0.48954655  0.88085460  0.37623442    -0.03100
C1925       C  0.51270724  0.88070896  0.37625558    -0.06100
C1926       C  0.52443944  0.89773740  0.38668567     0.20800
C1927       C  0.52410107  0.86346268  0.36589854     0.18900
C1928       C  0.51233138  0.84674664  0.35534589    -0.17600
C1929       C  0.48942316  0.84689048  0.35532520    -0.19800
C1930       C  0.47789735  0.86375342  0.36585908     0.20400
C1931       C  0.45493004  0.86371509  0.36628389    -0.32900
C1932       C  0.44334409  0.88070967  0.37663325     0.01100
C1933       C  0.45501046  0.89794843  0.38661567    -0.24200
C1934       C  0.54750292  0.89743651  0.38657494    -0.28800
C1935       C  0.55890272  0.88008768  0.37654108     0.06800
C1936       C  0.54706284  0.86317574  0.36629302    -0.27400
H1937       H  0.52157764  0.92786335  0.40521437     0.11500
H1938       H  0.48136355  0.92809888  0.40520615     0.12600
H1939       H  0.52085416  0.83347836  0.34719289     0.11700
H1940       H  0.48070986  0.83372586  0.34716716     0.11000
H1941       H  0.44602782  0.85049953  0.35838563     0.16400
H1942       H  0.44615023  0.91104989  0.39469666     0.12300
H1943       H  0.55657340  0.91047935  0.39455815     0.15100
H1944       H  0.55577487  0.84989518  0.35833124     0.14900
C1945       C  0.37559994  0.91542318  0.49238529    -0.18000
C1946       C  0.37619282  0.91474408  0.51528571    -0.20200
C1947       C  0.37649538  0.89457781  0.52633272     0.20500
C1948       C  0.37620355  0.87489534  0.51421957    -0.03100
C1949       C  0.37562825  0.87558100  0.49110368    -0.06100
C1950       C  0.37536260  0.89594338  0.48014625     0.20800
C1951       C  0.37540050  0.85589368  0.47898071     0.18900
C1952       C  0.37564059  0.83573825  0.49003745    -0.17600
C1953       C  0.37620738  0.83505994  0.51293916    -0.19800
C1954       C  0.37649468  0.85452800  0.52518375     0.20400
C1955       C  0.37695780  0.85397949  0.54817864    -0.32900
C1956       C  0.37708168  0.87354587  0.56038521     0.01100
C1957       C  0.37697390  0.89377106  0.54927472    -0.24200
C1958       C  0.37506927  0.89646356  0.45715901    -0.28800
C1959       C  0.37518313  0.87688183  0.44493075     0.06800
C1960       C  0.37513801  0.85667346  0.45602054    -0.27400
H1961       H  0.37540030  0.93119615  0.48424083     0.11500
H1962       H  0.37640071  0.93000923  0.52436611     0.12600
H1963       H  0.37546044  0.82047394  0.48096044     0.11700
H1964       H  0.37641462  0.81928744  0.52108066     0.11000
H1965       H  0.37709710  0.83831737  0.55654814     0.16400
H1966       H  0.37712527  0.90897247  0.55847585     0.12300
H1967       H  0.37499361  0.91213965  0.44880928     0.15100
H1968       H  0.37507242  0.84149153  0.44679225     0.14900
C1969       C  0.83752649  0.36079604  0.76233486    -0.18000
C1970       C  0.83664131  0.36150556  0.73944343    -0.20200
C1971       C  0.85423956  0.37010160  0.72733909     0.20500
C1972       C  0.87286446  0.37823460  0.73841508    -0.03100
C1973       C  0.87359209  0.37789531  0.76153355    -0.06100
C1974       C  0.85590646  0.36892857  0.77351891     0.20800
C1975       C  0.89201798  0.38647008  0.77263939     0.18900
C1976       C  0.90968160  0.39492588  0.76053267    -0.17600
C1977       C  0.90913334  0.39486905  0.73760658    -0.19800
C1978       C  0.89080186  0.38660036  0.72640586     0.20400
C1979       C  0.89014802  0.38641438  0.70342051    -0.32900
C1980       C  0.87162978  0.37834988  0.69226308     0.01100
C1981       C  0.85363224  0.37047394  0.70435791    -0.24200
C1982       C  0.85690557  0.36829657  0.79646835    -0.28800
C1983       C  0.87500296  0.37716680  0.80753084     0.06800
C1984       C  0.89243217  0.38637867  0.79563639    -0.27400
H1985       H  0.82379587  0.35394103  0.77130030     0.11500
H1986       H  0.82224550  0.35516435  0.73119070     0.12600
H1987       H  0.92397622  0.40148051  0.76879577     0.11700
H1988       H  0.92303689  0.40135318  0.72862834     0.11000
H1989       H  0.90403132  0.39262940  0.69420404     0.16400
H1990       H  0.83937564  0.36409658  0.69587336     0.12300
H1991       H  0.84345419  0.36131262  0.80578467     0.15100
H1992       H  0.90642918  0.39308967  0.80430995     0.14900
C1993       C  0.84352424  0.23715708  0.64952218    -0.18000
C1994       C  0.84271046  0.26007185  0.64964415    -0.20200
C1995       C  0.85844796  0.27238433  0.63820424     0.20500
C1996       C  0.87516403  0.26148308  0.62648282    -0.03100
C1997       C  0.87568415  0.23834864  0.62593839    -0.06100
C1998       C  0.85989186  0.22615515  0.63769033     0.20800
C1999       C  0.89195437  0.22743787  0.61359988     0.18900
C2000       C  0.90782601  0.23975524  0.60234792    -0.17600
C2001       C  0.90759644  0.26267404  0.60328557    -0.19800
C2002       C  0.89130360  0.27368198  0.61522694     0.20400
C2003       C  0.89075264  0.29666155  0.61595769    -0.32900
C2004       C  0.87388433  0.30761462  0.62720443     0.01100
C2005       C  0.85772796  0.29538492  0.63821094    -0.24200
C2006       C  0.86070818  0.20318476  0.63734153    -0.28800
C2007       C  0.87660692  0.19226121  0.62478688     0.06800
C2008       C  0.89205942  0.20442568  0.61277865    -0.27400
H2009       H  0.83124575  0.22802773  0.65856956     0.11500
H2010       H  0.82980768  0.26817037  0.65876175     0.12600
H2011       H  0.92047638  0.23165817  0.59288189     0.11700
H2012       H  0.92007542  0.27180269  0.59451586     0.11000
H2013       H  0.90311573  0.30605366  0.60727586     0.16400
H2014       H  0.84476933  0.30379294  0.64698676     0.12300
H2015       H  0.84869661  0.19374832  0.64646366     0.15100
H2016       H  0.90440410  0.19595054  0.60321453     0.14900
C2017       C  0.83768860  0.39423304  0.23860238    -0.18000
C2018       C  0.83769158  0.39351771  0.26150272    -0.20200
C2019       C  0.85459225  0.38279616  0.27278288     0.20500
C2020       C  0.87151577  0.37243450  0.26090804    -0.03100
C2021       C  0.87127194  0.37276866  0.23781699    -0.06100
C2022       C  0.85441441  0.38396789  0.22663023     0.20800
C2023       C  0.88794383  0.36198528  0.22593709     0.18900
C2024       C  0.90482275  0.35124700  0.23721177    -0.17600
C2025       C  0.90529208  0.35128378  0.26011489    -0.19800
C2026       C  0.88875262  0.36184750  0.27209355     0.20400
C2027       C  0.88919857  0.36210664  0.29505204    -0.32900
C2028       C  0.87238037  0.37237865  0.30694367     0.01100
C2029       C  0.85498395  0.38243319  0.29572859    -0.24200
C2030       C  0.85460655  0.38467222  0.20367831    -0.28800
C2031       C  0.87097434  0.37366982  0.19188723     0.06800
C2032       C  0.88746429  0.36220750  0.20299585    -0.27400
H2033       H  0.82458138  0.40278259  0.23025167     0.11500
H2034       H  0.82458704  0.40153733  0.27040066     0.12600
H2035       H  0.91775055  0.34294706  0.22831020     0.11700
H2036       H  0.91858656  0.34302987  0.26846430     0.11000
H2037       H  0.90248661  0.35410773  0.30368272     0.16400
H2038       H  0.84200839  0.39041226  0.30487507     0.12300
H2039       H  0.84183451  0.39337807  0.19494309     0.15100
H2040       H  0.90013863  0.35386930  0.19373668     0.14900
C2041       C  0.91206474  0.37833208  0.51162164    -0.18000
C2042       C  0.91245957  0.37838032  0.48870627    -0.20200
C2043       C  0.89321550  0.37446980  0.47673517     0.20500
C2044       C  0.87341646  0.37024384  0.48798295    -0.03100
C2045       C  0.87301467  0.37020197  0.51111179    -0.06100
C2046       C  0.89241794  0.37437837  0.52295221     0.20800
C2047       C  0.85316180  0.36623216  0.52236119     0.18900
C2048       C  0.83399353  0.36197219  0.51039082    -0.17600
C2049       C  0.83439435  0.36199157  0.48747458    -0.19800
C2050       C  0.85396621  0.36628998  0.47613948     0.20400
C2051       C  0.85436349  0.36690059  0.45318145    -0.32900
C2052       C  0.87396125  0.37136056  0.44181454     0.01100
C2053       C  0.89337854  0.37491583  0.45373939    -0.24200
C2054       C  0.89180717  0.37477989  0.54590388    -0.28800
C2055       C  0.87201517  0.37124814  0.55726981     0.06800
C2056       C  0.85277920  0.36682257  0.54535318    -0.27400
H2057       H  0.92711279  0.38154092  0.52049062     0.11500
H2058       H  0.92780339  0.38162050  0.48034132     0.12600
H2059       H  0.81863726  0.35879362  0.51875635     0.11700
H2060       H  0.81933774  0.35882188  0.47860682     0.11000
H2061       H  0.83934720  0.36392314  0.44416445     0.16400
H2062       H  0.90857636  0.37829943  0.44514940     0.12300
H2063       H  0.90674346  0.37818605  0.55490327     0.15100
H2064       H  0.83748366  0.36393209  0.55394876     0.14900
C2065       C  0.91016985  0.76155240  0.64251967    -0.18000
C2066       C  0.91038711  0.73863260  0.64209227    -0.20200
C2067       C  0.89572907  0.72706502  0.62864615     0.20500
C2068       C  0.88116651  0.73870468  0.61497522    -0.03100
C2069       C  0.88130422  0.76181538  0.61502607    -0.06100
C2070       C  0.89552026  0.77326765  0.62925872     0.20800
C2071       C  0.86688243  0.77344185  0.60119669     0.18900
C2072       C  0.85258780  0.76188073  0.58736462    -0.17600
C2073       C  0.85209287  0.73897284  0.58769605    -0.19800
C2074       C  0.86612273  0.72726904  0.60161174     0.20400
C2075       C  0.86511844  0.70435693  0.60268644    -0.32900
C2076       C  0.87938239  0.69273070  0.61644819     0.01100
C2077       C  0.89501458  0.70409052  0.62897704    -0.24200
C2078       C  0.89456398  0.79620401  0.63022777    -0.28800
C2079       C  0.88008786  0.80779558  0.61665792     0.06800
C2080       C  0.86668481  0.79640761  0.60180477    -0.27400
H2081       H  0.92132596  0.77011451  0.65337130     0.11500
H2082       H  0.92171466  0.72994592  0.65261958     0.12600
H2083       H  0.84147171  0.77056414  0.57661451     0.11700
H2084       H  0.84059464  0.73040949  0.57720379     0.11000
H2085       H  0.85331600  0.69551929  0.59274672     0.16400
H2086       H  0.90604558  0.69506809  0.63956012     0.12300
H2087       H  0.90516026  0.80508265  0.64140620     0.15100
H2088       H  0.85556286  0.80542070  0.59130865     0.14900
C2089       C  0.89400561  0.59058075  0.75498863    -0.18000
C2090       C  0.89432344  0.59108061  0.73208672    -0.20200
C2091       C  0.88520800  0.60883058  0.72072191     0.20500
C2092       C  0.87574806  0.62633025  0.73254291    -0.03100
C2093       C  0.87583163  0.62602896  0.75569287    -0.06100
C2094       C  0.88482371  0.60795382  0.76692250     0.20800
C2095       C  0.86685136  0.64373170  0.76757533     0.18900
C2096       C  0.85767749  0.66146398  0.75616848    -0.17600
C2097       C  0.85719322  0.66155917  0.73321294    -0.19800
C2098       C  0.86614079  0.64406398  0.72124215     0.20400
C2099       C  0.86566414  0.64392431  0.69820425    -0.32900
C2100       C  0.87536598  0.62666767  0.68644046     0.01100
C2101       C  0.88529451  0.60932270  0.69774837    -0.24200
C2102       C  0.88443726  0.60750240  0.78988482    -0.28800
C2103       C  0.87562617  0.62508399  0.80188727     0.06800
C2104       C  0.86706719  0.64328032  0.79061932    -0.27400
H2105       H  0.90100710  0.57660885  0.76337989     0.11500
H2106       H  0.90157460  0.57749848  0.72325218     0.12600
H2107       H  0.85070316  0.67518739  0.76500793     0.11700
H2108       H  0.84985415  0.67535251  0.72481582     0.11000
H2109       H  0.85812954  0.65737024  0.68939711     0.16400
H2110       H  0.89263709  0.59597347  0.68860429     0.12300
H2111       H  0.89123807  0.59352195  0.79845046     0.15100
H2112       H  0.86016012  0.65684570  0.79977097     0.14900
C2113       C  0.90967399  0.48844978  0.61592986    -0.18000
C2114       C  0.90997701  0.51132723  0.61571235    -0.20200
C2115       C  0.89034692  0.52318417  0.61696946     0.20500
C2116       C  0.87016076  0.51192871  0.61808267    -0.03100
C2117       C  0.86985368  0.48878748  0.61828952    -0.06100
C2118       C  0.88973589  0.47705913  0.61740747     0.20800
C2119       C  0.84972781  0.47741684  0.61967545     0.18900
C2120       C  0.83007205  0.48934574  0.62045578    -0.17600
C2121       C  0.83037695  0.51231276  0.62025131    -0.19800
C2122       C  0.85034251  0.52377490  0.61925751     0.20400
C2123       C  0.85089409  0.54682532  0.61961394    -0.32900
C2124       C  0.87104107  0.55813118  0.61883962     0.01100
C2125       C  0.89063921  0.54610446  0.61733610    -0.24200
C2126       C  0.88942737  0.45414669  0.61832514    -0.28800
C2127       C  0.86952601  0.44259835  0.62018199     0.06800
C2128       C  0.84967515  0.45437116  0.62056157    -0.27400
H2129       H  0.92506991  0.47965725  0.61515215     0.11500
H2130       H  0.92560030  0.51975761  0.61475598     0.12600
H2131       H  0.81445557  0.48091143  0.62143211     0.11700
H2132       H  0.81499021  0.52111438  0.62106002     0.11000
H2133       H  0.83568253  0.55591970  0.62061352     0.16400
H2134       H  0.90625999  0.55457408  0.61656922     0.12300
H2135       H  0.90481845  0.44531132  0.61782099     0.15100
H2136       H  0.83423108  0.44565232  0.62185571     0.14900
C2137       C  0.90126256  0.59260043  0.25733028    -0.18000
C2138       C  0.90060118  0.59094558  0.23451222    -0.20200
C2139       C  0.88799700  0.60564374  0.22218896     0.20500
C2140       C  0.87589004  0.62218531  0.23293447    -0.03100
C2141       C  0.87614460  0.62352782  0.25598115    -0.06100
C2142       C  0.88903376  0.60873731  0.26818529     0.20800
C2143       C  0.86337400  0.63950980  0.26680950     0.18900
C2144       C  0.85097734  0.65438951  0.25445460    -0.17600
C2145       C  0.85114781  0.65339450  0.23154884    -0.19800
C2146       C  0.86346934  0.63730893  0.22066545     0.20400
C2147       C  0.86359505  0.63602383  0.19774112    -0.32900
C2148       C  0.87542044  0.61941858  0.18703846     0.01100
C2149       C  0.88736359  0.60414072  0.19930391    -0.24200
C2150       C  0.88918130  0.61009568  0.29105860    -0.28800
C2151       C  0.87593304  0.62540733  0.30187911     0.06800
C2152       C  0.86306780  0.64010606  0.28978661    -0.27400
H2153       H  0.91115959  0.58109740  0.26651300     0.11500
H2154       H  0.91002521  0.57822131  0.22649155     0.12600
H2155       H  0.84116419  0.66679861  0.26250556     0.11700
H2156       H  0.84150111  0.66509306  0.22234666     0.11000
H2157       H  0.85420245  0.64768608  0.18820521     0.16400
H2158       H  0.89656781  0.59142884  0.19097844     0.12300
H2159       H  0.89896346  0.59869782  0.30052853     0.15100
H2160       H  0.85298424  0.65201574  0.29828098     0.14900
C2161       C  0.83461007  0.48665365  0.37221883    -0.18000
C2162       C  0.83456739  0.50952467  0.37089576    -0.20200
C2163       C  0.85433017  0.52116192  0.36891944     0.20500
C2164       C  0.87433915  0.50963369  0.36803373    -0.03100
C2165       C  0.87437998  0.48651979  0.36934635    -0.06100
C2166       C  0.85441392  0.47501853  0.37156213     0.20800
C2167       C  0.89437705  0.47495615  0.36860053     0.18900
C2168       C  0.91412461  0.48660186  0.36633655    -0.17600
C2169       C  0.91408932  0.50951438  0.36509891    -0.19800
C2170       C  0.89430246  0.52119316  0.36607092     0.20400
C2171       C  0.89413489  0.54420879  0.36541336    -0.32900
C2172       C  0.87424892  0.55585090  0.36667683     0.01100
C2173       C  0.85441305  0.54412776  0.36813167    -0.24200
C2174       C  0.85456265  0.45209761  0.37313857    -0.28800
C2175       C  0.87440835  0.44038894  0.37252673     0.06800
C2176       C  0.89426768  0.45198553  0.37019030    -0.27400
H2177       H  0.81913332  0.47806065  0.37385924     0.11500
H2178       H  0.81906237  0.51812998  0.37157445     0.12600
H2179       H  0.92962712  0.47799124  0.36565722     0.11700
H2180       H  0.92956819  0.51811467  0.36352497     0.11000
H2181       H  0.90951885  0.55304461  0.36415821     0.16400
H2182       H  0.83899518  0.55287901  0.36907809     0.12300
H2183       H  0.83915161  0.44337975  0.37481961     0.15100
H2184       H  0.90965648  0.44315611  0.36956291     0.14900
C2185       C  0.91008124  0.63710476  0.48170493    -0.18000
C2186       C  0.91035413  0.63762296  0.50458483    -0.20200
C2187       C  0.89193669  0.63085137  0.51659333     0.20500
C2188       C  0.87295674  0.62367468  0.50544620    -0.03100
C2189       C  0.87268413  0.62313953  0.48233796    -0.06100
C2190       C  0.89138711  0.62981187  0.47047686     0.20800
C2191       C  0.85374049  0.61594810  0.47112579     0.18900
C2192       C  0.83528041  0.60928077  0.48316701    -0.17600
C2193       C  0.83554673  0.60981748  0.50609875    -0.19800
C2194       C  0.85428202  0.61701399  0.51737389     0.20400
C2195       C  0.85471041  0.61761750  0.54035085    -0.32900
C2196       C  0.87366728  0.62451813  0.55155659     0.01100
C2197       C  0.89220650  0.63109988  0.53954964    -0.24200
C2198       C  0.89110695  0.62914455  0.44758029    -0.28800
C2199       C  0.87230940  0.62214097  0.43624058     0.06800
C2200       C  0.85362447  0.61560507  0.44810429    -0.27400
H2201       H  0.92452509  0.64236953  0.47278272     0.11500
H2202       H  0.92500466  0.64326603  0.51289465     0.12600
H2203       H  0.82062127  0.60367016  0.47484863     0.11700
H2204       H  0.82108808  0.60459863  0.51502272     0.11000
H2205       H  0.84037413  0.61244929  0.54951847     0.16400
H2206       H  0.90679613  0.63660964  0.54807596     0.12300
H2207       H  0.90550839  0.63439232  0.43855953     0.15100
H2208       H  0.83909758  0.61013232  0.43944877     0.14900
C2209       C  0.34951119  0.15809898  0.74223177    -0.18000
C2210       C  0.34855200  0.15750772  0.76510723    -0.20200
C2211       C  0.36222311  0.14335247  0.77693542     0.20500
C2212       C  0.37720606  0.12981429  0.76565918    -0.03100
C2213       C  0.37782026  0.13004763  0.74255087    -0.06100
C2214       C  0.36392454  0.14430717  0.73081531     0.20800
C2215       C  0.39212786  0.11584478  0.73120152     0.18900
C2216       C  0.40622448  0.10212491  0.74307536    -0.17600
C2217       C  0.40597200  0.10226002  0.76601368    -0.19800
C2218       C  0.39138803  0.11588075  0.77745344     0.20400
C2219       C  0.39052732  0.11566685  0.80044696    -0.32900
C2220       C  0.37514546  0.12863103  0.81165256     0.01100
C2221       C  0.36106536  0.14240570  0.79983416    -0.24200
C2222       C  0.36447253  0.14431360  0.70786477    -0.28800
C2223       C  0.37813119  0.12970637  0.69650711     0.06800
C2224       C  0.39192373  0.11551042  0.70820252    -0.27400
H2225       H  0.33875867  0.16913551  0.73345065     0.11500
H2226       H  0.33707614  0.16809564  0.77355233     0.12600
H2227       H  0.41741252  0.09124324  0.73461714     0.11700
H2228       H  0.41698147  0.09148987  0.77480680     0.11000
H2229       H  0.40138019  0.10502321  0.80960968     0.16400
H2230       H  0.34942259  0.15262944  0.80853074     0.12300
H2231       H  0.35380025  0.15521665  0.69879000     0.15100
H2232       H  0.40265196  0.10443743  0.69937466     0.14900
C2233       C  0.24096821  0.09049741  0.61155155    -0.18000
C2234       C  0.26390468  0.09102060  0.61137139    -0.20200
C2235       C  0.27527281  0.10838795  0.62133285     0.20500
C2236       C  0.26343493  0.12530308  0.63174673    -0.03100
C2237       C  0.24032565  0.12451570  0.63236719    -0.06100
C2238       C  0.22903578  0.10716285  0.62198010     0.20800
C2239       C  0.22852667  0.14115615  0.64328655     0.18900
C2240       C  0.23988589  0.15856659  0.65314532    -0.17600
C2241       C  0.26276252  0.15958201  0.65213077    -0.19800
C2242       C  0.27467015  0.14304530  0.64150429     0.20400
C2243       C  0.29761056  0.14391795  0.64052452    -0.32900
C2244       C  0.30949345  0.12697782  0.63047660     0.01100
C2245       C  0.29825210  0.10918884  0.62103084    -0.24200
C2246       C  0.20602852  0.10688200  0.62214112    -0.28800
C2247       C  0.19429968  0.12328339  0.63321949     0.06800
C2248       C  0.20557228  0.14019752  0.64397538    -0.27400
H2249       H  0.23255939  0.07702289  0.60358428     0.11500
H2250       H  0.27275204  0.07792162  0.60329408     0.12600
H2251       H  0.23105915  0.17149634  0.66151131     0.11700
H2252       H  0.27115453  0.17326985  0.65974517     0.11000
H2253       H  0.30625930  0.15755389  0.64797498     0.16400
H2254       H  0.30739316  0.09616186  0.61313882     0.12300
H2255       H  0.19721227  0.09381785  0.61390030     0.15100
H2256       H  0.19640681  0.15293395  0.65231032     0.14900
C2257       C  0.35331203  0.09375184  0.26492178    -0.18000
C2258       C  0.35306330  0.09400228  0.24200645    -0.20200
C2259       C  0.36113222  0.11220247  0.23047961     0.20500
C2260       C  0.36951220  0.13037348  0.24212774    -0.03100
C2261       C  0.36942541  0.13026129  0.26524991    -0.06100
C2262       C  0.36142150  0.11179343  0.27668542     0.20800
C2263       C  0.37738312  0.14859781  0.27690095     0.18900
C2264       C  0.38553248  0.16677186  0.26536215    -0.17600
C2265       C  0.38595830  0.16673976  0.24244079    -0.19800
C2266       C  0.37802051  0.14863187  0.23067804     0.20400
C2267       C  0.37843200  0.14841689  0.20768713    -0.32900
C2268       C  0.36984185  0.13048277  0.19613937     0.01100
C2269       C  0.36105185  0.11253838  0.20751636    -0.24200
C2270       C  0.36166486  0.11168759  0.29967167    -0.28800
C2271       C  0.36943530  0.12996254  0.31139846     0.06800
C2272       C  0.37713558  0.14840975  0.29987856    -0.27400
H2273       H  0.34709016  0.07946404  0.27345091     0.11500
H2274       H  0.34665035  0.07990893  0.23329210     0.12600
H2275       H  0.39170487  0.18097164  0.27407451     0.11700
H2276       H  0.39245414  0.18090615  0.23390907     0.11000
H2277       H  0.38509400  0.16227127  0.19874523     0.16400
H2278       H  0.35455084  0.09869448  0.19843799     0.12300
H2279       H  0.35556302  0.09747782  0.30843473     0.15100
H2280       H  0.38324825  0.16251800  0.30879949     0.14900
C2281       C  0.36981671  0.08936773  0.51532989    -0.18000
C2282       C  0.36863813  0.08954082  0.49244930    -0.20200
C2283       C  0.36905580  0.10943439  0.48093076     0.20500
C2284       C  0.37034975  0.12937377  0.49257030    -0.03100
C2285       C  0.37153937  0.12919834  0.51565516    -0.06100
C2286       C  0.37140709  0.10908681  0.52706654     0.20800
C2287       C  0.37302918  0.14913069  0.52728214     0.18900
C2288       C  0.37308238  0.16903903  0.51578099    -0.17600
C2289       C  0.37191055  0.16921303  0.49290144    -0.19800
C2290       C  0.37068853  0.14947843  0.48115085     0.20400
C2291       C  0.37009310  0.14949527  0.45818547    -0.32900
C2292       C  0.36927362  0.12966206  0.44644196     0.01100
C2293       C  0.36849219  0.10971157  0.45797782    -0.24200
C2294       C  0.37291163  0.10903860  0.54999524    -0.28800
C2295       C  0.37448085  0.12884412  0.56171370     0.06800
C2296       C  0.37448978  0.14882192  0.55019485    -0.27400
H2297       H  0.36960510  0.07379149  0.52384539     0.11500
H2298       H  0.36757160  0.07409264  0.48374728     0.12600
H2299       H  0.37414642  0.18448776  0.52448195     0.11700
H2300       H  0.37212447  0.18478768  0.48438529     0.11000
H2301       H  0.37056593  0.16496342  0.44947113     0.16400
H2302       H  0.36768776  0.09433622  0.44910504     0.12300
H2303       H  0.37278862  0.09355899  0.55870245     0.15100
H2304       H  0.37563888  0.16418744  0.55904562     0.14900
C2305       C  0.76273358  0.15740820  0.60070873    -0.18000
C2306       C  0.73982075  0.15745353  0.60137878    -0.20200
C2307       C  0.72841959  0.14075055  0.61237195     0.20500
C2308       C  0.74017063  0.12373495  0.62266576    -0.03100
C2309       C  0.76326901  0.12392892  0.62237106    -0.06100
C2310       C  0.77459576  0.14081313  0.61125535     0.20800
C2311       C  0.77501811  0.10735266  0.63337914     0.18900
C2312       C  0.76361788  0.09040340  0.64397386    -0.17600
C2313       C  0.74070907  0.08997171  0.64388321    -0.19800
C2314       C  0.72885769  0.10664528  0.63345359     0.20400
C2315       C  0.70590173  0.10668452  0.63386801    -0.32900
C2316       C  0.69416003  0.12390076  0.62417948     0.01100
C2317       C  0.70548403  0.14084915  0.61341365    -0.24200
C2318       C  0.79757559  0.14089375  0.61108628    -0.28800
C2319       C  0.80923066  0.12477382  0.62253841     0.06800
C2320       C  0.79795718  0.10810784  0.63369211    -0.27400
H2321       H  0.77118381  0.17048341  0.59214026     0.11500
H2322       H  0.73101477  0.17057394  0.59332640     0.12600
H2323       H  0.77242508  0.07749636  0.65236610     0.11700
H2324       H  0.73225626  0.07674042  0.65220634     0.11000
H2325       H  0.69717825  0.09363500  0.64222744     0.16400
H2326       H  0.69642148  0.15401534  0.60569882     0.12300
H2327       H  0.80641725  0.15376933  0.60257741     0.15100
H2328       H  0.80710418  0.09558264  0.64233455     0.14900
C2329       C  0.66463337  0.14694620  0.76224862    -0.18000
C2330       C  0.66340551  0.14775403  0.73936959    -0.20200
C2331       C  0.64668477  0.13656337  0.72820156     0.20500
C2332       C  0.63111647  0.12429600  0.74019679    -0.03100
C2333       C  0.63207959  0.12387063  0.76329910    -0.06100
C2334       C  0.64896757  0.13520860  0.77436627     0.20800
C2335       C  0.61602586  0.11229018  0.77530982     0.18900
C2336       C  0.59955435  0.10072896  0.76413379    -0.17600
C2337       C  0.59889554  0.10073624  0.74122151    -0.19800
C2338       C  0.61451276  0.11255227  0.72912329     0.20400
C2339       C  0.61380949  0.11287944  0.70615948    -0.32900
C2340       C  0.62900534  0.12539444  0.69421207     0.01100
C2341       C  0.64527118  0.13735765  0.70526476    -0.24200
C2342       C  0.64967097  0.13491463  0.79735195    -0.28800
C2343       C  0.63328950  0.12406336  0.80939348     0.06800
C2344       C  0.61658338  0.11269562  0.79827887    -0.27400
H2345       H  0.67769305  0.15573510  0.77048770     0.11500
H2346       H  0.67556064  0.15712259  0.73040055     0.12600
H2347       H  0.58716543  0.09168994  0.77311836     0.11700
H2348       H  0.58604270  0.09166097  0.73296407     0.11000
H2349       H  0.60123431  0.10371560  0.69754717     0.16400
H2350       H  0.65712230  0.14680861  0.69595084     0.12300
H2351       H  0.66251695  0.14375261  0.80589586     0.15100
H2352       H  0.60406147  0.10410301  0.80754037     0.14900
C2353       C  0.48954716  0.08863419  0.62996729    -0.18000
C2354       C  0.51243452  0.08809395  0.62982617    -0.20200
C2355       C  0.52454687  0.10762522  0.62876897     0.20500
C2356       C  0.51351626  0.12791181  0.62777444    -0.03100
C2357       C  0.49041650  0.12845775  0.62789350    -0.06100
C2358       C  0.47842877  0.10871312  0.62901793     0.20800
C2359       C  0.47933977  0.14873093  0.62692757     0.18900
C2360       C  0.49148353  0.16825231  0.62577674    -0.17600
C2361       C  0.51440374  0.16771235  0.62565806    -0.19800
C2362       C  0.52554968  0.14764422  0.62670848     0.20400
C2363       C  0.54850622  0.14696691  0.62676768    -0.32900
C2364       C  0.55961409  0.12681080  0.62784553     0.01100
C2365       C  0.54749105  0.10720973  0.62875501    -0.24200
C2366       C  0.45552097  0.10934734  0.62917350    -0.28800
C2367       C  0.44430215  0.12945079  0.62821741     0.06800
C2368       C  0.45633879  0.14910498  0.62712602    -0.27400
H2369       H  0.48053444  0.07333818  0.63082839     0.11500
H2370       H  0.52066625  0.07239360  0.63058749     0.12600
H2371       H  0.48325196  0.18394955  0.62499415     0.11700
H2372       H  0.52341967  0.18300595  0.62479324     0.11000
H2373       H  0.55770721  0.16216127  0.62593995     0.16400
H2374       H  0.55589233  0.09159164  0.62954368     0.12300
H2375       H  0.44643214  0.09408995  0.63007469     0.15100
H2376       H  0.44784006  0.16467033  0.62638728     0.14900
C2377       C  0.63556387  0.08431000  0.26392235    -0.18000
C2378       C  0.63776908  0.08456229  0.24110179    -0.20200
C2379       C  0.63387717  0.10386470  0.22925274     0.20500
C2380       C  0.62801685  0.12320841  0.24053860    -0.03100
C2381       C  0.62598328  0.12298861  0.26357322    -0.06100
C2382       C  0.62957151  0.10338712  0.27528581     0.20800
C2383       C  0.62021667  0.14233760  0.27484403     0.18900
C2384       C  0.61664403  0.16173122  0.26303310    -0.17600
C2385       C  0.61840531  0.16189877  0.24018353    -0.19800
C2386       C  0.62391027  0.14270599  0.22878871     0.20400
C2387       C  0.62504785  0.14255616  0.20584109    -0.32900
C2388       C  0.63057815  0.12328980  0.19462191     0.01100
C2389       C  0.63535509  0.10410533  0.20630426    -0.24200
C2390       C  0.62717160  0.10321477  0.29814876    -0.28800
C2391       C  0.62153185  0.12246115  0.30951818     0.06800
C2392       C  0.61812838  0.14196698  0.29771940    -0.27400
H2393       H  0.63848778  0.06915905  0.27268623     0.11500
H2394       H  0.64230104  0.06959752  0.23269651     0.12600
H2395       H  0.61229836  0.17674367  0.27146033     0.11700
H2396       H  0.61533144  0.17701205  0.23141048     0.11000
H2397       H  0.62151235  0.15733946  0.19665380     0.16400
H2398       H  0.63961162  0.08928604  0.19747039     0.12300
H2399       H  0.63007659  0.08817080  0.30711577     0.15100
H2400       H  0.61383968  0.15689970  0.30633398     0.14900
C2401       C  0.48254757  0.08635168  0.37863351    -0.18000
C2402       C  0.50548494  0.08564035  0.37873167    -0.20200
C2403       C  0.51781575  0.10508644  0.37918197     0.20500
C2404       C  0.50689282  0.12545001  0.37967165    -0.03100
C2405       C  0.48373280  0.12616689  0.37959868    -0.06100
C2406       C  0.47151539  0.10651928  0.37901289     0.20800
C2407       C  0.47283133  0.14653961  0.38002337     0.18900
C2408       C  0.48515050  0.16598127  0.38060558    -0.17600
C2409       C  0.50807171  0.16527447  0.38064433    -0.19800
C2410       C  0.51909010  0.14511041  0.38012031     0.20400
C2411       C  0.54207713  0.14429894  0.37989771    -0.32900
C2412       C  0.55315874  0.12408175  0.37921152     0.01100
C2413       C  0.54084725  0.10452760  0.37899850    -0.24200
C2414       C  0.44850574  0.10737464  0.37877401    -0.28800
C2415       C  0.43746644  0.12763199  0.37913573     0.06800
C2416       C  0.44982442  0.14713806  0.37980452    -0.27400
H2417       H  0.47342634  0.07110203  0.37821027     0.11500
H2418       H  0.51358622  0.06986039  0.37837057     0.12600
H2419       H  0.47704981  0.18176409  0.38096312     0.11700
H2420       H  0.51719140  0.18052549  0.38101666     0.11000
H2421       H  0.55133132  0.15948026  0.38013248     0.16400
H2422       H  0.54916269  0.08885487  0.37851806     0.12300
H2423       H  0.43920656  0.09222677  0.37829818     0.15100
H2424       H  0.44155390  0.16284092  0.38012710     0.14900
C2425       C  0.61463851  0.16254369  0.49033823    -0.18000
C2426       C  0.61482054  0.16269978  0.51323627    -0.20200
C2427       C  0.62039278  0.14372937  0.52493177     0.20500
C2428       C  0.62593463  0.12442293  0.51347048    -0.03100
C2429       C  0.62572144  0.12425764  0.49036796    -0.06100
C2430       C  0.61997383  0.14340414  0.47877889     0.20800
C2431       C  0.63104892  0.10489735  0.47889140     0.18900
C2432       C  0.63692958  0.08601360  0.49059173    -0.17600
C2433       C  0.63716339  0.08618630  0.51350588    -0.19800
C2434       C  0.63153608  0.10524418  0.52507821     0.20400
C2435       C  0.63136950  0.10545160  0.54804225    -0.32900
C2436       C  0.62586974  0.12464080  0.55956630     0.01100
C2437       C  0.62046690  0.14372795  0.54788254    -0.24200
C2438       C  0.61938888  0.14301340  0.45584454    -0.28800
C2439       C  0.62414659  0.12365124  0.44431130     0.06800
C2440       C  0.63015424  0.10469745  0.45593723    -0.27400
H2441       H  0.61018886  0.17736994  0.48166343     0.11500
H2442       H  0.61053494  0.17764806  0.52180423     0.12600
H2443       H  0.64118072  0.07105817  0.48202268     0.11700
H2444       H  0.64161891  0.07136415  0.52218304     0.11000
H2445       H  0.63570744  0.09071275  0.55693599     0.16400
H2446       H  0.61615760  0.15856753  0.55664705     0.12300
H2447       H  0.61478641  0.15769546  0.44698547     0.15100
H2448       H  0.63411535  0.08978830  0.44713020     0.14900
C2449       C  0.15313077  0.59511047  0.73545566    -0.18000
C2450       C  0.15268440  0.59441536  0.75833229    -0.20200
C2451       C  0.13863089  0.60825207  0.77013103     0.20500
C2452       C  0.12473289  0.62282994  0.75880301    -0.03100
C2453       C  0.12483325  0.62318191  0.73570312    -0.06100
C2454       C  0.13931589  0.60943430  0.72402161     0.20800
C2455       C  0.11052358  0.63731520  0.72431408     0.18900
C2456       C  0.09647534  0.65116663  0.73613520    -0.17600
C2457       C  0.09673838  0.65117712  0.75906986    -0.19800
C2458       C  0.11080794  0.63709222  0.77054819     0.20400
C2459       C  0.11122549  0.63697255  0.79354386    -0.32900
C2460       C  0.12483805  0.62226539  0.80483355     0.01100
C2461       C  0.13831299  0.60782573  0.79306592    -0.24200
C2462       C  0.13974911  0.61025638  0.70111058    -0.28800
C2463       C  0.12542961  0.62410939  0.68972505     0.06800
C2464       C  0.11064394  0.63739915  0.70132612    -0.27400
H2465       H  0.16425324  0.58439697  0.72669600     0.11500
H2466       H  0.16346212  0.58316968  0.76681073     0.12600
H2467       H  0.08541917  0.66212849  0.72764198     0.11700
H2468       H  0.08588243  0.66215274  0.76783439     0.11000
H2469       H  0.10068424  0.64797894  0.80267494     0.16400
H2470       H  0.14890309  0.59658417  0.80181741     0.12300
H2471       H  0.15092382  0.59980184  0.69207310     0.15100
H2472       H  0.09961738  0.64810926  0.69245033     0.14900
C2473       C  0.10530705  0.75900393  0.65604888    -0.18000
C2474       C  0.10497455  0.73611664  0.65524577    -0.20200
C2475       C  0.11713250  0.72488184  0.63929862     0.20500
C2476       C  0.12999816  0.73676865  0.62415798    -0.03100
C2477       C  0.12993553  0.75989210  0.62465973    -0.06100
C2478       C  0.11753541  0.77102909  0.64071151     0.20800
C2479       C  0.14206613  0.77184607  0.60898070     0.18900
C2480       C  0.15471569  0.76056285  0.59341332    -0.17600
C2481       C  0.15516160  0.73761765  0.59321886    -0.19800
C2482       C  0.14272300  0.72556320  0.60839114     0.20400
C2483       C  0.14255518  0.70253626  0.60798064    -0.32900
C2484       C  0.12919089  0.69075547  0.62259664     0.01100
C2485       C  0.11653164  0.70197111  0.63815726    -0.24200
C2486       C  0.11735579  0.79399335  0.64099399    -0.28800
C2487       C  0.12883930  0.80599708  0.62503217     0.06800
C2488       C  0.14119276  0.79484380  0.60908134    -0.27400
H2489       H  0.09574561  0.76731553  0.66849261     0.11500
H2490       H  0.09516219  0.72719794  0.66707396     0.12600
H2491       H  0.16423361  0.76948819  0.58135137     0.11700
H2492       H  0.16502346  0.72929659  0.58101804     0.11000
H2493       H  0.15230581  0.69378587  0.59597205     0.16400
H2494       H  0.10646972  0.69278316  0.64959213     0.12300
H2495       H  0.10782036  0.80255051  0.65330918     0.15100
H2496       H  0.15033071  0.80408368  0.59694521     0.14900
C2497       C  0.09852644  0.64975374  0.25798156    -0.18000
C2498       C  0.09844122  0.64865236  0.23509401    -0.20200
C2499       C  0.11148534  0.63323976  0.22410198     0.20500
C2500       C  0.12484525  0.61883869  0.23625500    -0.03100
C2501       C  0.12532187  0.62029696  0.25933235    -0.06100
C2502       C  0.11191047  0.63568308  0.27023745     0.20800
C2503       C  0.13918413  0.60635772  0.27147625     0.18900
C2504       C  0.15210537  0.59083401  0.26048350    -0.17600
C2505       C  0.15127556  0.58907360  0.23762966    -0.19800
C2506       C  0.13774417  0.60301624  0.22535944     0.20400
C2507       C  0.13697493  0.60154723  0.20239917    -0.32900
C2508       C  0.12402717  0.61616747  0.19022554     0.01100
C2509       C  0.11142463  0.63201322  0.20117070    -0.24200
C2510       C  0.11211281  0.63670000  0.29319502    -0.28800
C2511       C  0.12609844  0.62306938  0.30529916     0.06800
C2512       C  0.13976579  0.60811732  0.29439055    -0.27400
H2513       H  0.08819950  0.66169437  0.26609750     0.11500
H2514       H  0.08807228  0.65978935  0.22598369     0.12600
H2515       H  0.16276804  0.57996339  0.26957547     0.11700
H2516       H  0.16132788  0.57688600  0.22953541     0.11000
H2517       H  0.14686790  0.58944516  0.19395770     0.16400
H2518       H  0.10133808  0.64321765  0.19180176     0.12300
H2519       H  0.10167109  0.64831378  0.30166809     0.15100
H2520       H  0.15040452  0.59747704  0.30380758     0.14900
C2521       C  0.08892205  0.63628628  0.50950399    -0.18000
C2522       C  0.08880585  0.63679850  0.48661245    -0.20200
C2523       C  0.10761088  0.63096446  0.47473914     0.20500
C2524       C  0.12677682  0.62466259  0.48602687    -0.03100
C2525       C  0.12688778  0.62412563  0.50912112    -0.06100
C2526       C  0.10783576  0.62990969  0.52087695     0.20800
C2527       C  0.14603642  0.61780311  0.52042565     0.18900
C2528       C  0.16486020  0.61201378  0.50854239    -0.17600
C2529       C  0.16474811  0.61253650  0.48563596    -0.19800
C2530       C  0.14581592  0.61887061  0.47425391     0.20400
C2531       C  0.14557517  0.61947158  0.45131194    -0.32900
C2532       C  0.12649501  0.62560672  0.43995058     0.01100
C2533       C  0.10756694  0.63129862  0.45178447    -0.24200
C2534       C  0.10801132  0.62923920  0.54380122    -0.28800
C2535       C  0.12702902  0.62303559  0.55520023     0.06800
C2536       C  0.14601221  0.61739027  0.54339831    -0.27400
H2537       H  0.07419082  0.64083913  0.51832079     0.11500
H2538       H  0.07398848  0.64172870  0.47818958     0.12600
H2539       H  0.17967834  0.60708662  0.51696758     0.11700
H2540       H  0.17948179  0.60799538  0.47681655     0.11000
H2541       H  0.16020059  0.61492183  0.44229895     0.16400
H2542       H  0.09282646  0.63611085  0.44314071     0.12300
H2543       H  0.09336135  0.63377915  0.55277783     0.15100
H2544       H  0.16072555  0.61255184  0.55207529     0.14900
C2545       C  0.15373617  0.26046981  0.60531206    -0.18000
C2546       C  0.15481353  0.23761496  0.60598797    -0.20200
C2547       C  0.14040996  0.22568335  0.61938232     0.20500
C2548       C  0.12481356  0.23686610  0.63232342    -0.03100
C2549       C  0.12340391  0.25990009  0.63126786    -0.06100
C2550       C  0.13804498  0.27171216  0.61779171     0.20800
C2551       C  0.10735020  0.27108852  0.64364373     0.18900
C2552       C  0.09316516  0.25914496  0.65728768    -0.17600
C2553       C  0.09484086  0.23631397  0.65865912    -0.19800
C2554       C  0.11053561  0.22503013  0.64618657     0.20400
C2555       C  0.11202308  0.20210929  0.64706670    -0.32900
C2556       C  0.12703979  0.19093365  0.63367090     0.01100
C2557       C  0.14118144  0.20275479  0.61989892    -0.24200
C2558       C  0.13679508  0.29457562  0.61706120    -0.28800
C2559       C  0.12078562  0.30580150  0.62919026     0.06800
C2560       C  0.10591532  0.29401108  0.64225622    -0.27400
H2561       H  0.16507979  0.26935101  0.59490155     0.11500
H2562       H  0.16692522  0.22926806  0.59604407     0.12600
H2563       H  0.08082235  0.26746906  0.66696198     0.11700
H2564       H  0.08372824  0.22745968  0.66933349     0.11000
H2565       H  0.10100854  0.19289621  0.65756264     0.16400
H2566       H  0.15285359  0.19406372  0.60969800     0.12300
H2567       H  0.14818983  0.30368438  0.60687678     0.15100
H2568       H  0.09370074  0.30271564  0.65177825     0.14900
C2569       C  0.15007479  0.34154114  0.76228040    -0.18000
C2570       C  0.14967663  0.34209102  0.73935369    -0.20200
C2571       C  0.13742707  0.35807941  0.72829970     0.20500
C2572       C  0.12535979  0.37362013  0.74045534    -0.03100
C2573       C  0.12615155  0.37335702  0.76357492    -0.06100
C2574       C  0.13847983  0.35715949  0.77454904     0.20800
C2575       C  0.11463318  0.38931965  0.77568633     0.18900
C2576       C  0.10203535  0.40505124  0.76465413    -0.17600
C2577       C  0.10085943  0.40501499  0.74176593    -0.19800
C2578       C  0.11252050  0.38944205  0.72952006     0.20400
C2579       C  0.11161209  0.38941841  0.70654634    -0.32900
C2580       C  0.12397935  0.37429219  0.69441373     0.01100
C2581       C  0.13696687  0.35877911  0.70532150    -0.24200
C2582       C  0.13903159  0.35692354  0.79756985    -0.28800
C2583       C  0.12793777  0.37306461  0.80968146     0.06800
C2584       C  0.11587015  0.38924940  0.79861611    -0.27400
H2585       H  0.15960161  0.32899180  0.77042088     0.11500
H2586       H  0.15890824  0.32995871  0.73026006     0.12600
H2587       H  0.09301638  0.41735024  0.77374206     0.11700
H2588       H  0.09095167  0.41727147  0.73363347     0.11000
H2589       H  0.10162263  0.40138741  0.69805816     0.16400
H2590       H  0.14627349  0.34694319  0.69588787     0.12300
H2591       H  0.14837986  0.34445275  0.80605548     0.15100
H2592       H  0.10705498  0.40156133  0.80791263     0.14900
C2593       C  0.16291284  0.48612529  0.62243992    -0.18000
C2594       C  0.16335369  0.50903798  0.62237658    -0.20200
C2595       C  0.14384968  0.52102918  0.62441681     0.20500
C2596       C  0.12374157  0.50985892  0.62692676    -0.03100
C2597       C  0.12329990  0.48673222  0.62700605    -0.06100
C2598       C  0.14296407  0.47482744  0.62457418     0.20800
C2599       C  0.10316345  0.47554932  0.62928046     0.18900
C2600       C  0.08373258  0.48755122  0.63186677    -0.17600
C2601       C  0.08416846  0.51047023  0.63177049    -0.19800
C2602       C  0.10404429  0.52177558  0.62907857     0.20400
C2603       C  0.10453331  0.54475830  0.62822797    -0.32900
C2604       C  0.12447981  0.55600564  0.62529568     0.01100
C2605       C  0.14409117  0.54397985  0.62370098    -0.24200
C2606       C  0.14232344  0.45185292  0.62419682    -0.28800
C2607       C  0.12226726  0.44056587  0.62617955     0.06800
C2608       C  0.10277470  0.45257717  0.62881191    -0.27400
H2609       H  0.17817044  0.47723578  0.62065706     0.11500
H2610       H  0.17894029  0.51738503  0.62052594     0.12600
H2611       H  0.06815333  0.47920522  0.63377654     0.11700
H2612       H  0.06891633  0.51935740  0.63358721     0.11000
H2613       H  0.08936690  0.55386292  0.62973000     0.16400
H2614       H  0.15958239  0.55245826  0.62158965     0.12300
H2615       H  0.15746298  0.44277754  0.62227132     0.15100
H2616       H  0.08725864  0.44406237  0.63054734     0.14900
C2617       C  0.08404061  0.39640436  0.24123431    -0.18000
C2618       C  0.08389274  0.39557431  0.26413030    -0.20200
C2619       C  0.10219305  0.38772186  0.27558944     0.20500
C2620       C  0.12088542  0.38071566  0.26390406    -0.03100
C2621       C  0.12089987  0.38119807  0.24081662    -0.06100
C2622       C  0.10240761  0.38918209  0.22943972     0.20800
C2623       C  0.13934473  0.37353727  0.22912379     0.18900
C2624       C  0.15777385  0.36601085  0.24057888    -0.17600
C2625       C  0.15789943  0.36589322  0.26348250    -0.19800
C2626       C  0.13949174  0.37304820  0.27526825     0.20400
C2627       C  0.13926543  0.37241409  0.29820884    -0.32900
C2628       C  0.12050464  0.37887641  0.30992368     0.01100
C2629       C  0.10206514  0.38658972  0.29851572    -0.24200
C2630       C  0.10258498  0.38964283  0.20647559    -0.28800
C2631       C  0.12071446  0.38159134  0.19490161     0.06800
C2632       C  0.13897491  0.37347762  0.20618438    -0.27400
H2633       H  0.06972021  0.40252856  0.23274362     0.11500
H2634       H  0.06944498  0.40105824  0.27288215     0.12600
H2635       H  0.17208774  0.36019714  0.23181954     0.11700
H2636       H  0.17230752  0.35998448  0.27197941     0.11000
H2637       H  0.15351671  0.36641039  0.30692300     0.16400
H2638       H  0.08764019  0.39180635  0.30748837     0.12300
H2639       H  0.08850554  0.39578840  0.19757240     0.15100
H2640       H  0.15296619  0.36740407  0.19704956     0.14900
C2641       C  0.16218464  0.51096842  0.38274864    -0.18000
C2642       C  0.16171204  0.48807245  0.38360557    -0.20200
C2643       C  0.14186759  0.47668290  0.38108162     0.20500
C2644       C  0.12227668  0.48850658  0.37777547    -0.03100
C2645       C  0.12275393  0.51161788  0.37690224    -0.06100
C2646       C  0.14282686  0.52286206  0.37933254     0.20800
C2647       C  0.10317869  0.52344250  0.37352247     0.18900
C2648       C  0.08331958  0.51206472  0.37106719    -0.17600
C2649       C  0.08285061  0.48916088  0.37189869    -0.19800
C2650       C  0.10222717  0.47725161  0.37524013     0.20400
C2651       C  0.10190614  0.45428875  0.37597767    -0.32900
C2652       C  0.12137852  0.44232584  0.37912815     0.01100
C2653       C  0.14130022  0.45369208  0.38169862    -0.24200
C2654       C  0.14322900  0.54579078  0.37823662    -0.28800
C2655       C  0.12381796  0.55772200  0.37481235     0.06800
C2656       C  0.10382296  0.54640937  0.37257337    -0.27400
H2657       H  0.17772385  0.51937902  0.38468988     0.11500
H2658       H  0.17689296  0.47926371  0.38618526     0.12600
H2659       H  0.06814599  0.52087994  0.36844893     0.11700
H2660       H  0.06731958  0.48075159  0.36989811     0.11000
H2661       H  0.08646292  0.44573268  0.37385660     0.16400
H2662       H  0.15638824  0.44466348  0.38411055     0.12300
H2663       H  0.15870803  0.55434095  0.38012000     0.15100
H2664       H  0.08877388  0.55544671  0.36994207     0.14900
C2665       C  0.15546802  0.35560460  0.49054580    -0.18000
C2666       C  0.15536530  0.35529196  0.51345655    -0.20200
C2667       C  0.13649056  0.36134869  0.52512826     0.20500
C2668       C  0.11728627  0.36705425  0.51363664    -0.03100
C2669       C  0.11738127  0.36734295  0.49051047    -0.06100
C2670       C  0.13667954  0.36193808  0.47893697     0.20800
C2671       C  0.09832075  0.37349737  0.47900665     0.18900
C2672       C  0.07922070  0.37882112  0.49067444    -0.17600
C2673       C  0.07913548  0.37855575  0.51359805    -0.19800
C2674       C  0.09814701  0.37295799  0.52523833     0.20400
C2675       C  0.09852068  0.37364724  0.54823916    -0.32900
C2676       C  0.11788431  0.36881965  0.55976246     0.01100
C2677       C  0.13665994  0.36228773  0.54806926    -0.24200
C2678       C  0.13696077  0.36331434  0.45599638    -0.28800
C2679       C  0.11814943  0.36988863  0.44443858     0.06800
C2680       C  0.09879458  0.37460440  0.45606740    -0.27400
H2681       H  0.17035429  0.35121271  0.48191121     0.11500
H2682       H  0.17018393  0.35067870  0.52205875     0.12600
H2683       H  0.06442212  0.38348901  0.48207150     0.11700
H2684       H  0.06427559  0.38304173  0.52223110     0.11000
H2685       H  0.08393054  0.37853729  0.55712695     0.16400
H2686       H  0.15153999  0.35815100  0.55682792     0.12300
H2687       H  0.15186643  0.35937085  0.44715892     0.15100
H2688       H  0.08418499  0.37958461  0.44730197     0.14900
C2689       C  0.76286776  0.90656332  0.34576133    -0.18000
C2690       C  0.73998015  0.90716425  0.34698444    -0.20200
C2691       C  0.72844388  0.89099327  0.35861418     0.20500
C2692       C  0.74008426  0.87404313  0.36916000    -0.03100
C2693       C  0.76322363  0.87370446  0.36833147    -0.06100
C2694       C  0.77462537  0.88994331  0.35639168     0.20800
C2695       C  0.77493285  0.85715697  0.37945498     0.18900
C2696       C  0.76336684  0.84085370  0.39088708    -0.17600
C2697       C  0.74041312  0.84092187  0.39130735    -0.19800
C2698       C  0.72862280  0.85748269  0.38058396     0.20400
C2699       C  0.70560386  0.85789595  0.38123517    -0.32900
C2700       C  0.69394936  0.87503274  0.37120478     0.01100
C2701       C  0.70548836  0.89152517  0.35994841    -0.24200
C2702       C  0.79757771  0.88928937  0.35529714    -0.28800
C2703       C  0.80930309  0.87308476  0.36659186     0.06800
C2704       C  0.79796862  0.85719767  0.37884782    -0.27400
H2705       H  0.77138615  0.91917809  0.33659548     0.11500
H2706       H  0.73128678  0.92025580  0.33875921     0.12600
H2707       H  0.77207639  0.82798108  0.39943094     0.11700
H2708       H  0.73187904  0.82810675  0.40017892     0.11000
H2709       H  0.69676990  0.84520275  0.39001182     0.16400
H2710       H  0.69655393  0.90464350  0.35200037     0.12300
H2711       H  0.80639777  0.90161400  0.34598896     0.15100
H2712       H  0.80708204  0.84462214  0.38744335     0.14900
C2713       C  0.90896455  0.73740496  0.38748118    -0.18000
C2714       C  0.90961171  0.76027384  0.38612530    -0.20200
C2715       C  0.89291662  0.77172372  0.37527671     0.20500
C2716       C  0.87532327  0.76005244  0.36576994    -0.03100
C2717       C  0.87442547  0.73701698  0.36756665    -0.06100
C2718       C  0.89146443  0.72564054  0.37826003     0.20800
C2719       C  0.85655853  0.72537999  0.35855684     0.18900
C2720       C  0.83986641  0.73684732  0.34769934    -0.17600
C2721       C  0.84095496  0.75965111  0.34556557    -0.19800
C2722       C  0.85860912  0.77139410  0.35450901     0.20400
C2723       C  0.85972782  0.79428759  0.35264539    -0.32900
C2724       C  0.87689345  0.80593155  0.36259445     0.01100
C2725       C  0.89338956  0.79464434  0.37391479    -0.24200
C2726       C  0.89082688  0.70269433  0.37933130    -0.28800
C2727       C  0.87315079  0.69099706  0.37027141     0.06800
C2728       C  0.85588062  0.70246382  0.36026237    -0.27400
H2729       H  0.92214038  0.72891591  0.39578268     0.11500
H2730       H  0.92323357  0.76900378  0.39347325     0.12600
H2731       H  0.82605183  0.72815127  0.34067737     0.11700
H2732       H  0.82793623  0.76811508  0.33699709     0.11000
H2733       H  0.84688221  0.80313343  0.34416936     0.16400
H2734       H  0.90661204  0.80375588  0.38156706     0.12300
H2735       H  0.90408629  0.69391533  0.38721368     0.15100
H2736       H  0.84228474  0.69349216  0.35313027     0.14900
C2737       C  0.85303656  0.26098348  0.33633877    -0.18000
C2738       C  0.85295109  0.23807924  0.33543499    -0.20200
C2739       C  0.86207329  0.22574713  0.35254033     0.20500
C2740       C  0.87163858  0.23658351  0.37061464    -0.03100
C2741       C  0.87213385  0.25967241  0.37131409    -0.06100
C2742       C  0.86251659  0.27191380  0.35422270     0.20800
C2743       C  0.88216299  0.27049699  0.38915984     0.18900
C2744       C  0.89134276  0.25817214  0.40622468    -0.17600
C2745       C  0.89045978  0.23528428  0.40573803    -0.19800
C2746       C  0.88063331  0.22436404  0.38804165     0.20400
C2747       C  0.87964119  0.20144030  0.38747853    -0.32900
C2748       C  0.87025355  0.19055762  0.36948544     0.01100
C2749       C  0.86170428  0.20278224  0.35196420    -0.24200
C2750       C  0.86254228  0.29485858  0.35536608    -0.28800
C2751       C  0.87269930  0.30560777  0.37297703     0.06800
C2752       C  0.88271710  0.29345159  0.38966523    -0.27400
H2753       H  0.84571151  0.27015176  0.32303835     0.11500
H2754       H  0.84556769  0.23000348  0.32144301     0.12600
H2755       H  0.89905538  0.26624166  0.42003887     0.11700
H2756       H  0.89750419  0.22611648  0.41919136     0.11000
H2757       H  0.88651335  0.19204199  0.40087849     0.16400
H2758       H  0.85443224  0.19441566  0.33806946     0.12300
H2759       H  0.85503327  0.30440191  0.34241320     0.15100
H2760       H  0.89049743  0.30190323  0.40323339     0.14900
C2761       C  0.73325716  0.15043639  0.34494262    -0.18000
C2762       C  0.75612927  0.15005311  0.34360141    -0.20200
C2763       C  0.76827686  0.13580211  0.35688919     0.20500
C2764       C  0.75729574  0.12175243  0.37166860    -0.03100
C2765       C  0.73420093  0.12178266  0.37265607    -0.06100
C2766       C  0.72216137  0.13635027  0.35935822     0.20800
C2767       C  0.72317377  0.10726262  0.38693780     0.18900
C2768       C  0.73534776  0.09319917  0.40042197    -0.17600
C2769       C  0.75827337  0.09353869  0.39982034    -0.19800
C2770       C  0.76938124  0.10769941  0.38547053     0.20400
C2771       C  0.79234797  0.10806989  0.38464511    -0.32900
C2772       C  0.80328634  0.12175063  0.36968530     0.01100
C2773       C  0.79121236  0.13542397  0.35573280    -0.24200
C2774       C  0.69923799  0.13655177  0.36068728    -0.28800
C2775       C  0.68819427  0.12189766  0.37458253     0.06800
C2776       C  0.70018425  0.10714899  0.38751574    -0.27400
H2777       H  0.72423075  0.16167254  0.33460488     0.11500
H2778       H  0.76432752  0.16099270  0.33225307     0.12600
H2779       H  0.72713589  0.08202336  0.41153198     0.11700
H2780       H  0.76731732  0.08262909  0.41048517     0.11000
H2781       H  0.80173575  0.09746700  0.39534809     0.16400
H2782       H  0.79972355  0.14614470  0.34437991     0.12300
H2783       H  0.68992522  0.14780618  0.35059994     0.15100
H2784       H  0.69160700  0.09595972  0.39835733     0.14900
C2785       C  0.86913457  0.01034318  0.32561172    -0.18000
C2786       C  0.86982469  0.98744576  0.32513094    -0.20200
C2787       C  0.87317226  0.97551333  0.34448903     0.20500
C2788       C  0.87606806  0.98674939  0.36449507    -0.03100
C2789       C  0.87537740  0.00984483  0.36497448    -0.06100
C2790       C  0.87178245  0.02167609  0.34544864     0.20800
C2791       C  0.87810690  0.02106566  0.38501089     0.18900
C2792       C  0.88179317  0.00915142  0.40431066    -0.17600
C2793       C  0.88246254  0.98626066  0.40383868    -0.19800
C2794       C  0.87946934  0.97491978  0.38405675     0.20400
C2795       C  0.87966431  0.95196360  0.38353117    -0.32900
C2796       C  0.87658139  0.94062461  0.36369121     0.01100
C2797       C  0.87350578  0.95254838  0.34420759    -0.24200
C2798       C  0.87075466  0.04461045  0.34612421    -0.28800
C2799       C  0.87317736  0.05590300  0.36608486     0.06800
C2800       C  0.87696485  0.04398735  0.38543615    -0.27400
H2801       H  0.86641001  0.01919207  0.31046760     0.11500
H2802       H  0.86761831  0.97906289  0.30963342     0.12600
H2803       H  0.88401586  0.01753780  0.41980879     0.11700
H2804       H  0.88518598  0.97741579  0.41898203     0.11000
H2805       H  0.88219000  0.94293554  0.39861139     0.16400
H2806       H  0.87114562  0.94397356  0.32882825     0.12300
H2807       H  0.86789549  0.05364364  0.33110625     0.15100
H2808       H  0.87902230  0.05253659  0.40087732     0.14900
C2809       C  0.09962371  0.73757357  0.34219276    -0.18000
C2810       C  0.10013368  0.76042704  0.34099172    -0.20200
C2811       C  0.11478090  0.77244641  0.35401143     0.20500
C2812       C  0.12926061  0.76135663  0.36822853    -0.03100
C2813       C  0.12911554  0.73827781  0.36904037    -0.06100
C2814       C  0.11401605  0.72638489  0.35615047     0.20800
C2815       C  0.14395563  0.72712248  0.38282455     0.18900
C2816       C  0.15856894  0.73917746  0.39589898    -0.17600
C2817       C  0.15834502  0.76210494  0.39549081    -0.19800
C2818       C  0.14373045  0.77332467  0.38176178     0.20400
C2819       C  0.14314250  0.79628463  0.38143650    -0.32900
C2820       C  0.12879840  0.80729364  0.36724526     0.01100
C2821       C  0.11497315  0.79537179  0.35330181    -0.24200
C2822       C  0.11355782  0.70350085  0.35743603    -0.28800
C2823       C  0.12847601  0.69231739  0.37084139     0.06800
C2824       C  0.14379143  0.70413102  0.38334595    -0.27400
H2825       H  0.08800806  0.72863774  0.33215158     0.11500
H2826       H  0.08889354  0.76871765  0.33005880     0.12600
H2827       H  0.17002655  0.73087566  0.40659297     0.11700
H2828       H  0.16961217  0.77106488  0.40590500     0.11000
H2829       H  0.15394398  0.80562694  0.39203492     0.16400
H2830       H  0.10385959  0.80398970  0.34246635     0.12300
H2831       H  0.10186516  0.69431415  0.34768253     0.15100
H2832       H  0.15518166  0.69543241  0.39381742     0.14900
C2833       C  0.26366736  0.84204763  0.35266911    -0.18000
C2834       C  0.24075588  0.84186734  0.35177885    -0.20200
C2835       C  0.22853893  0.85707160  0.36395329     0.20500
C2836       C  0.23945871  0.87217894  0.37768224    -0.03100
C2837       C  0.26255521  0.87268845  0.37819626    -0.06100
C2838       C  0.27470592  0.85761946  0.36553323     0.20800
C2839       C  0.27346893  0.88858894  0.39100896     0.18900
C2840       C  0.26124503  0.90310691  0.40397553    -0.17600
C2841       C  0.23834429  0.90227207  0.40385429    -0.19800
C2842       C  0.22731647  0.88715348  0.39048018     0.20400
C2843       C  0.20438792  0.88715822  0.38919187    -0.32900
C2844       C  0.19358548  0.87302978  0.37461167     0.01100
C2845       C  0.20564107  0.85781536  0.36227308    -0.24200
C2846       C  0.29766416  0.85863600  0.36570842    -0.28800
C2847       C  0.30853829  0.87495110  0.37781868     0.06800
C2848       C  0.29639776  0.88984018  0.39044585    -0.27400
H2849       H  0.27276081  0.83029837  0.34295403     0.11500
H2850       H  0.23259746  0.83001025  0.34135808     0.12600
H2851       H  0.26939808  0.91524270  0.41407064     0.11700
H2852       H  0.22925068  0.91379683  0.41383737     0.11000
H2853       H  0.19497475  0.89875941  0.39881115     0.16400
H2854       H  0.19715673  0.84659388  0.35139277     0.12300
H2855       H  0.30707953  0.84713801  0.35597054     0.15100
H2856       H  0.30484434  0.90219589  0.40004865     0.14900
C2857       C  0.01251185  0.85389555  0.39586660    -0.18000
C2858       C  0.98964424  0.85402760  0.39547116    -0.20200
C2859       C  0.97842398  0.86323881  0.37769264     0.20500
C2860       C  0.99029336  0.87215567  0.35994947    -0.03100
C2861       C  0.01342986  0.87204881  0.36036325    -0.06100
C2862       C  0.02451380  0.86300262  0.37850266     0.20800
C2863       C  0.02544509  0.88113174  0.34277953     0.18900
C2864       C  0.01413812  0.89018829  0.32491309    -0.17600
C2865       C  0.99115607  0.89026789  0.32448832    -0.19800
C2866       C  0.97905802  0.88129659  0.34192514     0.20400
C2867       C  0.95597348  0.88140532  0.34180532    -0.32900
C2868       C  0.94413440  0.87284474  0.35969112     0.01100
C2869       C  0.95552258  0.86377616  0.37748604    -0.24200
C2870       C  0.04741501  0.86340747  0.37914800    -0.28800
C2871       C  0.05956326  0.87260342  0.36187625     0.06800
C2872       C  0.04850177  0.88119217  0.34355631    -0.27400
H2873       H  0.02081969  0.84681466  0.40985184     0.11500
H2874       H  0.98072025  0.84703353  0.40915421     0.12600
H2875       H  0.02307173  0.89728944  0.31129355     0.11700
H2876       H  0.98284081  0.89741713  0.31054383     0.11000
H2877       H  0.94725250  0.88849698  0.32806837     0.16400
H2878       H  0.94649861  0.85695162  0.39120785     0.12300
H2879       H  0.05582173  0.85653903  0.39319673     0.15100
H2880       H  0.05779417  0.88834195  0.33019118     0.14900
C2881       C  0.25612343  0.15450936  0.34760304    -0.18000
C2882       C  0.23322268  0.15362361  0.34704579    -0.20200
C2883       C  0.22159034  0.14172677  0.36294035     0.20500
C2884       C  0.23312113  0.13060121  0.37959127    -0.03100
C2885       C  0.25625053  0.13108407  0.37986199    -0.06100
C2886       C  0.26778434  0.14324051  0.36386660     0.20800
C2887       C  0.26782333  0.11925636  0.39599769     0.18900
C2888       C  0.25617332  0.10755721  0.41204360    -0.17600
C2889       C  0.23323063  0.10748604  0.41206236    -0.19800
C2890       C  0.22156066  0.11884960  0.39585366     0.20400
C2891       C  0.19856014  0.11848659  0.39545572    -0.32900
C2892       C  0.18703924  0.12912546  0.37861093     0.01100
C2893       C  0.19864281  0.14066159  0.36239534    -0.24200
C2894       C  0.29077229  0.14368132  0.36425751    -0.28800
C2895       C  0.30232276  0.13144028  0.37988069     0.06800
C2896       C  0.29082601  0.11921792  0.39566702    -0.27400
H2897       H  0.26473149  0.16383726  0.33516880     0.11500
H2898       H  0.22459951  0.16228190  0.33418915     0.12600
H2899       H  0.26480914  0.09846664  0.42458728     0.11700
H2900       H  0.22461025  0.09835016  0.42463326     0.11000
H2901       H  0.18963014  0.10942481  0.40788194     0.16400
H2902       H  0.18976819  0.14899786  0.34947765     0.12300
H2903       H  0.29972365  0.15296243  0.35200813     0.15100
H2904       H  0.29982999  0.10989268  0.40779560     0.14900
C2905       C  0.13636007  0.23796762  0.34063110    -0.18000
C2906       C  0.13707843  0.26087463  0.34074045    -0.20200
C2907       C  0.12634829  0.27275991  0.35723821     0.20500
C2908       C  0.11440260  0.26144447  0.37356300    -0.03100
C2909       C  0.11411754  0.23830348  0.37375025    -0.06100
C2910       C  0.12520850  0.22655962  0.35722064     0.20800
C2911       C  0.10308447  0.22694287  0.39066707     0.18900
C2912       C  0.09167677  0.23886229  0.40670774    -0.17600
C2913       C  0.09153438  0.26180731  0.40623832    -0.19800
C2914       C  0.10305540  0.27323654  0.38990503     0.20400
C2915       C  0.10371823  0.29622710  0.38979496    -0.32900
C2916       C  0.11623765  0.30748497  0.37407320     0.01100
C2917       C  0.12752221  0.29573056  0.35784667    -0.24200
C2918       C  0.12534364  0.20361498  0.35778086    -0.28800
C2919       C  0.11517359  0.19217193  0.37502108     0.06800
C2920       C  0.10393780  0.20391401  0.39137316    -0.27400
H2921       H  0.14488274  0.22915608  0.32778429     0.11500
H2922       H  0.14613588  0.26929501  0.32798183     0.12600
H2923       H  0.08297143  0.23043938  0.41970550     0.11700
H2924       H  0.08270552  0.27062400  0.41887256     0.11000
H2925       H  0.09505600  0.30539144  0.40231906     0.16400
H2926       H  0.13696099  0.30450598  0.34559018     0.12300
H2927       H  0.13401305  0.19463785  0.34513007     0.15100
H2928       H  0.09578639  0.19513369  0.40450714     0.14900
C2929       C  0.98253407  0.13902490  0.40634033    -0.18000
C2930       C  0.00535769  0.13791494  0.40758592    -0.20200
C2931       C  0.01756347  0.12982137  0.38986506     0.20500
C2932       C  0.00673199  0.12291508  0.37063059    -0.03100
C2933       C  0.98370229  0.12401603  0.36938445    -0.06100
C2934       C  0.97159013  0.13199870  0.38738889     0.20800
C2935       C  0.97280731  0.11703236  0.35019735     0.18900
C2936       C  0.98505841  0.10905596  0.33244089    -0.17600
C2937       C  0.00792715  0.10802661  0.33365296    -0.19800
C2938       C  0.01890171  0.11495534  0.35263798     0.20400
C2939       C  0.04183065  0.11429357  0.35387802    -0.32900
C2940       C  0.05268570  0.12130890  0.37294192     0.01100
C2941       C  0.04043475  0.12876809  0.39096338    -0.24200
C2942       C  0.94871928  0.13253248  0.38626462    -0.28800
C2943       C  0.93772900  0.12525820  0.36737899     0.06800
C2944       C  0.94985382  0.11786150  0.34924945    -0.27400
H2945       H  0.97342512  0.14526204  0.42025818     0.11500
H2946       H  0.01346454  0.14338209  0.42240742     0.12600
H2947       H  0.97694891  0.10357609  0.31762554     0.11700
H2948       H  0.01703864  0.10184143  0.31971827     0.11000
H2949       H  0.05123135  0.10841499  0.33998835     0.16400
H2950       H  0.04873521  0.13433515  0.40565517     0.12300
H2951       H  0.93943352  0.13847340  0.40021162     0.15100
H2952       H  0.94141977  0.11218838  0.33467682     0.14900
C2953       C  0.13460367  0.98994581  0.33244144    -0.18000
C2954       C  0.13436466  0.01285179  0.33349675    -0.20200
C2955       C  0.12915476  0.02357435  0.35318161     0.20500
C2956       C  0.12406218  0.01111837  0.37197069    -0.03100
C2957       C  0.12425753  0.98800914  0.37089075    -0.06100
C2958       C  0.12962012  0.97737014  0.35104744     0.20800
C2959       C  0.11915974  0.97557624  0.38969311     0.18900
C2960       C  0.11374194  0.98628382  0.40931358    -0.17600
C2961       C  0.11357723  0.00916854  0.41039005    -0.19800
C2962       C  0.11879350  0.02173434  0.39185331     0.20400
C2963       C  0.11873397  0.04471069  0.39284029    -0.32900
C2964       C  0.12365412  0.05726084  0.37414591     0.01100
C2965       C  0.12887651  0.04652241  0.35438098    -0.24200
C2966       C  0.13001562  0.95437307  0.35020740    -0.28800
C2967       C  0.12520465  0.94187086  0.36898943     0.06800
C2968       C  0.11967644  0.95265572  0.38861872    -0.27400
H2969       H  0.13873386  0.98206320  0.31707092     0.11500
H2970       H  0.13828775  0.02218993  0.31890875     0.12600
H2971       H  0.10971543  0.97694685  0.42387562     0.11700
H2972       H  0.10940169  0.01704544  0.42574958     0.11000
H2973       H  0.11455298  0.05280848  0.40809325     0.16400
H2974       H  0.13271888  0.05602315  0.33986664     0.12300
H2975       H  0.13425015  0.94623724  0.33498920     0.15100
H2976       H  0.11579172  0.94321258  0.40315969     0.14900
loop_ 
_geom_bond_atom_site_label_1 
_geom_bond_atom_site_label_2 
_geom_bond_distance 
_geom_bond_site_symmetry_2 
_ccdc_geom_bond_type 
O1           Cu9   2.028       .  S
O1           C11   1.280       .  A
O2           Cu9   2.022       .  S
O2           C12   1.280       .  A
O3           Cu9   2.009       .  S
O3           C13   1.278       .  A
O4           Cu9   1.994       .  S
O4           C14   1.276       .  A
O5          Cu10   2.007       .  S
O5           C14   1.278       .  A
O6          Cu10   2.006       .  S
O6           C13   1.278       .  A
O7          Cu10   1.998       .  S
O7           C12   1.277       .  A
O8          Cu10   1.997       .  S
O8           C11   1.276       .  A
Cu9         Cu10   2.373       .  S
C11        C2919   1.479       .  S
C12        C2964   1.482       .  S
C13        C2892   1.474       .  S
C14        C2940   1.473       .  S
O15         Cu23   2.016       .  S
O15          C25   1.279       .  A
O16         Cu23   2.005       .  S
O16          C26   1.277       .  A
O17         Cu23   2.014       .  S
O17          C27   1.278       .  A
O18         Cu23   2.013       .  S
O18          C28   1.279       .  A
O19         Cu24   1.996       .  S
O19          C28   1.275       .  A
O20         Cu24   2.002       .  S
O20          C27   1.278       .  A
O21         Cu24   1.999       .  S
O21          C26   1.276       .  A
O22         Cu24   2.000       .  S
O22          C25   1.278       .  A
Cu23        Cu24   2.371       .  S
C25        C2967   1.482       .  S
C26        C2820   1.465       .  S
C27        C2871   1.478       .  S
C28        C2844   1.467       .  S
O29         Cu37   2.005       .  S
O29          C39   1.278       .  A
O30         Cu37   2.001       .  S
O30          C40   1.277       .  A
O31         Cu37   2.013       .  S
O31          C41   1.279       .  A
O32         Cu37   2.009       .  S
O32          C42   1.278       .  A
O33         Cu38   1.999       .  S
O33          C42   1.276       .  A
O34         Cu38   1.987       .  S
O34          C41   1.276       .  A
O35         Cu38   2.005       .  S
O35          C40   1.278       .  A
O36         Cu38   2.003       .  S
O36          C39   1.278       .  A
Cu37        Cu38   2.374       .  S
C39        C2799   1.479       .  S
C40        C2748   1.473       .  S
C41        C2943   1.473       .  S
C42        C2772   1.469       .  S
O43         Cu51   2.022       .  S
O43          C53   1.279       .  A
O44         Cu51   2.011       .  S
O44          C54   1.278       .  A
O45         Cu51   2.003       .  S
O45          C55   1.278       .  A
O46         Cu51   2.017       .  S
O46          C56   1.279       .  A
O47         Cu52   1.995       .  S
O47          C56   1.276       .  A
O48         Cu52   2.007       .  S
O48          C55   1.278       .  A
O49         Cu52   2.014       .  S
O49          C54   1.278       .  A
O50         Cu52   1.999       .  S
O50          C53   1.278       .  A
Cu51        Cu52   2.374       .  S
C53        C2868   1.478       .  S
C54        C2703   1.472       .  S
C55        C2796   1.479       .  S
C56        C2724   1.467       .  S
O57         Cu65   2.000       .  S
O57          C67   1.277       .  A
O58         Cu65   2.006       .  S
O58          C68   1.277       .  A
O59         Cu65   2.002       .  S
O59          C69   1.278       .  A
O60         Cu65   2.006       .  S
O60          C70   1.278       .  A
O61         Cu66   1.999       .  S
O61          C70   1.277       .  A
O62         Cu66   2.010       .  S
O62          C69   1.279       .  A
O63         Cu66   2.016       .  S
O63          C68   1.279       .  A
O64         Cu66   2.022       .  S
O64          C67   1.280       .  A
Cu65        Cu66   2.372       .  S
C67        C2652   1.483       .  S
C68        C2916   1.471       .  S
C69        C2679   1.479       .  S
C70        C2628   1.475       .  S
O71         Cu79   2.007       .  S
O71          C81   1.277       .  A
O72         Cu79   2.017       .  S
O72          C82   1.279       .  A
O73         Cu79   2.018       .  S
O73          C83   1.279       .  A
O74         Cu79   2.010       .  S
O74          C84   1.279       .  A
O75         Cu80   2.006       .  S
O75          C84   1.278       .  A
O76         Cu80   1.988       .  S
O76          C83   1.276       .  A
O77         Cu80   2.005       .  S
O77          C82   1.278       .  A
O78         Cu80   2.011       .  S
O78          C81   1.278       .  A
Cu79        Cu80   2.373       .  S
C81        C2580   1.471       .  S
C82        C2676   1.481       .  S
C83        C2559   1.470       .  S
C84        C2607   1.482       .  S
O85         Cu93   1.999       .  S
O85          C95   1.277       .  A
O86         Cu93   2.010       .  S
O86          C96   1.279       .  A
O87         Cu93   2.009       .  S
O87          C97   1.279       .  A
O88         Cu93   2.006       .  S
O88          C98   1.277       .  A
O89         Cu94   2.009       .  S
O89          C98   1.278       .  A
O90         Cu94   1.997       .  S
O90          C97   1.277       .  A
O91         Cu94   2.000       .  S
O91          C96   1.278       .  A
O92         Cu94   2.011       .  S
O92          C95   1.278       .  A
Cu93        Cu94   2.374       .  S
C95        C2823   1.469       .  S
C96        C2655   1.480       .  S
C97        C2532   1.476       .  S
C98        C2511   1.470       .  S
O99        Cu107   1.995       .  S
O99         C109   1.275       .  A
O100       Cu107   2.003       .  S
O100        C110   1.278       .  A
O101       Cu107   2.018       .  S
O101        C111   1.280       .  A
O102       Cu107   2.006       .  S
O102        C112   1.278       .  A
O103       Cu108   2.010       .  S
O103        C112   1.277       .  A
O104       Cu108   1.999       .  S
O104        C111   1.277       .  A
O105       Cu108   2.004       .  S
O105        C110   1.278       .  A
O106       Cu108   2.009       .  S
O106        C109   1.279       .  A
Cu107      Cu108   2.375       .  S
C109       C2463   1.467       .  S
C110       C2535   1.477       .  S
C111       C2604   1.482       .  S
C112       C2484   1.469       .  S
O113       Cu121   2.013       .  S
O113        C123   1.279       .  A
O114       Cu121   2.005       .  S
O114        C124   1.278       .  A
O115       Cu121   2.020       .  S
O115        C125   1.280       .  A
O116       Cu121   2.007       .  S
O116        C126   1.277       .  A
O117       Cu122   2.006       .  S
O117        C126   1.278       .  A
O118       Cu122   2.008       .  S
O118        C125   1.278       .  A
O119       Cu122   2.003       .  S
O119        C124   1.278       .  A
O120       Cu122   2.000       .  S
O120        C123   1.277       .  A
Cu121      Cu122   2.372       .  S
C123       C2391   1.480       .  S
C124       C2439   1.476       .  S
C125       C2412   1.486       .  S
C126       C2775   1.470       .  S
O127       Cu135   2.003       .  S
O127        C137   1.278       .  A
O128       Cu135   2.014       .  S
O128        C138   1.278       .  A
O129       Cu135   1.997       .  S
O129        C139   1.277       .  A
O130       Cu135   2.002       .  S
O130        C140   1.278       .  A
O131       Cu136   2.001       .  S
O131        C140   1.278       .  A
O132       Cu136   2.006       .  S
O132        C139   1.278       .  A
O133       Cu136   2.003       .  S
O133        C138   1.277       .  A
O134       Cu136   2.004       .  S
O134        C137   1.278       .  A
Cu135      Cu136   2.372       .  S
C137       C2436   1.477       .  S
C138       C2340   1.470       .  S
C139       C2316   1.471       .  S
C140       C2364   1.477       .  S
O141       Cu149   2.006       .  S
O141        C151   1.277       .  A
O142       Cu149   2.014       .  S
O142        C152   1.279       .  A
O143       Cu149   2.002       .  S
O143        C153   1.278       .  A
O144       Cu149   2.013       .  S
O144        C154   1.279       .  A
O145       Cu150   2.004       .  S
O145        C154   1.278       .  A
O146       Cu150   2.009       .  S
O146        C153   1.278       .  A
O147       Cu150   2.015       .  S
O147        C152   1.279       .  A
O148       Cu150   2.015       .  S
O148        C151   1.278       .  A
Cu149      Cu150   2.371       .  S
C151       C2895   1.470       .  S
C152       C2415   1.486       .  S
C153       C2292   1.480       .  S
C154       C2271   1.479       .  S
O155       Cu163   2.011       .  S
O155        C165   1.279       .  A
O156       Cu163   2.017       .  S
O156        C166   1.279       .  A
O157       Cu163   2.004       .  S
O157        C167   1.278       .  A
O158       Cu163   2.000       .  S
O158        C168   1.276       .  A
O159       Cu164   2.015       .  S
O159        C168   1.279       .  A
O160       Cu164   2.010       .  S
O160        C167   1.279       .  A
O161       Cu164   1.989       .  S
O161        C166   1.276       .  A
O162       Cu164   2.000       .  S
O162        C165   1.277       .  A
Cu163      Cu164   2.373       .  S
C165       C2244   1.474       .  S
C166       C2367   1.479       .  S
C167       C2295   1.481       .  S
C168       C2223   1.471       .  S
O169       Cu177   1.997       .  S
O169        C179   1.276       .  A
O170       Cu177   1.993       .  S
O170        C180   1.277       .  A
O171       Cu177   2.011       .  S
O171        C181   1.278       .  A
O172       Cu177   2.010       .  S
O172        C182   1.278       .  A
O173       Cu178   2.007       .  S
O173        C182   1.278       .  A
O174       Cu178   2.014       .  S
O174        C181   1.279       .  A
O175       Cu178   2.015       .  S
O175        C180   1.279       .  A
O176       Cu178   2.006       .  S
O176        C179   1.277       .  A
Cu177      Cu178   2.374       .  S
C179       C2151   1.464       .  S
C180       C2199   1.477       .  S
C181       C2172   1.484       .  S
C182       C2727   1.476       .  S
O183       Cu191   2.020       .  S
O183        C193   1.279       .  A
O184       Cu191   2.010       .  S
O184        C194   1.278       .  A
O185       Cu191   2.002       .  S
O185        C195   1.277       .  A
O186       Cu191   2.016       .  S
O186        C196   1.278       .  A
O187       Cu192   2.012       .  S
O187        C196   1.278       .  A
O188       Cu192   2.013       .  S
O188        C195   1.279       .  A
O189       Cu192   2.002       .  S
O189        C194   1.276       .  A
O190       Cu192   1.998       .  S
O190        C193   1.278       .  A
Cu191      Cu192   2.371       .  S
C193       C2124   1.483       .  S
C194       C2076   1.470       .  S
C195       C2196   1.478       .  S
C196       C2100   1.472       .  S
O197       Cu205   2.008       .  S
O197        C207   1.279       .  A
O198       Cu205   2.007       .  S
O198        C208   1.277       .  A
O199       Cu205   2.006       .  S
O199        C209   1.278       .  A
O200       Cu205   1.995       .  S
O200        C210   1.276       .  A
O201       Cu206   2.013       .  S
O201        C210   1.279       .  A
O202       Cu206   2.012       .  S
O202        C209   1.279       .  A
O203       Cu206   2.005       .  S
O203        C208   1.277       .  A
O204       Cu206   2.014       .  S
O204        C207   1.279       .  A
Cu205      Cu206   2.372       .  S
C207       C2175   1.484       .  S
C208       C2751   1.465       .  S
C209       C2052   1.482       .  S
C210       C2028   1.473       .  S
O211       Cu219   2.009       .  S
O211        C221   1.278       .  A
O212       Cu219   2.002       .  S
O212        C222   1.278       .  A
O213       Cu219   2.007       .  S
O213        C223   1.278       .  A
O214       Cu219   1.998       .  S
O214        C224   1.277       .  A
O215       Cu220   2.018       .  S
O215        C224   1.280       .  A
O216       Cu220   2.014       .  S
O216        C223   1.279       .  A
O217       Cu220   2.022       .  S
O217        C222   1.279       .  A
O218       Cu220   2.015       .  S
O218        C221   1.279       .  A
Cu219      Cu220   2.371       .  S
C221       C2004   1.477       .  S
C222       C2127   1.485       .  S
C223       C1980   1.480       .  S
C224       C2055   1.481       .  S
O225       Cu233   2.015       .  S
O225        C235   1.279       .  A
O226       Cu233   2.017       .  S
O226        C236   1.279       .  A
O227       Cu233   2.013       .  S
O227        C237   1.278       .  A
O228       Cu233   2.003       .  S
O228        C238   1.277       .  A
O229       Cu234   2.015       .  S
O229        C238   1.280       .  A
O230       Cu234   2.005       .  S
O230        C237   1.277       .  A
O231       Cu234   2.008       .  S
O231        C236   1.278       .  A
O232       Cu234   1.995       .  S
O232        C235   1.276       .  A
Cu233      Cu234   2.374       .  S
C235       C2847   1.470       .  S
C236       C1932   1.480       .  S
C237       C1908   1.472       .  S
C238       C1959   1.482       .  S
O239       Cu247   1.997       .  S
O239        C249   1.277       .  A
O240       Cu247   2.003       .  S
O240        C250   1.278       .  A
O241       Cu247   1.996       .  S
O241        C251   1.277       .  A
O242       Cu247   2.003       .  S
O242        C252   1.277       .  A
O243       Cu248   2.016       .  S
O243        C252   1.279       .  A
O244       Cu248   2.021       .  S
O244        C251   1.280       .  A
O245       Cu248   2.010       .  S
O245        C250   1.279       .  A
O246       Cu248   2.017       .  S
O246        C249   1.279       .  A
Cu247      Cu248   2.371       .  S
C249       C1836   1.475       .  S
C250       C1884   1.481       .  S
C251       C1956   1.482       .  S
C252       C1860   1.474       .  S
O253       Cu261   1.995       .  S
O253        C263   1.276       .  A
O254       Cu261   2.000       .  S
O254        C264   1.278       .  A
O255       Cu261   2.003       .  S
O255        C265   1.278       .  A
O256       Cu261   2.006       .  S
O256        C266   1.277       .  A
O257       Cu262   2.004       .  S
O257        C266   1.277       .  A
O258       Cu262   2.009       .  S
O258        C265   1.278       .  A
O259       Cu262   2.021       .  S
O259        C264   1.280       .  A
O260       Cu262   2.026       .  S
O260        C263   1.280       .  A
Cu261      Cu262   2.371       .  S
C263       C1788   1.478       .  S
C264       C1887   1.484       .  S
C265       C1815   1.480       .  S
C266       C1764   1.469       .  S
O267       Cu275   2.004       .  S
O267        C277   1.277       .  A
O268       Cu275   2.004       .  S
O268        C278   1.278       .  A
O269       Cu275   2.006       .  S
O269        C279   1.278       .  A
O270       Cu275   2.016       .  S
O270        C280   1.279       .  A
O271       Cu276   2.010       .  S
O271        C280   1.278       .  A
O272       Cu276   2.021       .  S
O272        C279   1.279       .  A
O273       Cu276   2.008       .  S
O273        C278   1.278       .  A
O274       Cu276   2.007       .  S
O274        C277   1.277       .  A
Cu275      Cu276   2.374       .  S
C277       C1740   1.466       .  S
C278       C1812   1.480       .  S
C279       C1935   1.479       .  S
C280       C2700   1.479       .  S
O281       Cu289   2.002       .  S
O281        C291   1.278       .  A
O282       Cu289   2.005       .  S
O282        C292   1.277       .  A
O283       Cu289   2.005       .  S
O283        C293   1.278       .  A
O284       Cu289   2.004       .  S
O284        C294   1.277       .  A
O285       Cu290   2.016       .  S
O285        C294   1.279       .  A
O286       Cu290   2.006       .  S
O286        C293   1.278       .  A
O287       Cu290   1.996       .  S
O287        C292   1.276       .  A
O288       Cu290   2.003       .  S
O288        C291   1.278       .  A
Cu289      Cu290   2.372       .  S
C291       C1695   1.477       .  S
C292       C1839   1.462       .  S
C293       C1719   1.480       .  S
C294       C2487   1.476       .  S
O295       Cu303   2.007       .  S
O295        C305   1.278       .  A
O296       Cu303   2.003       .  S
O296        C306   1.276       .  A
O297       Cu303   1.999       .  S
O297        C307   1.277       .  A
O298       Cu303   2.006       .  S
O298        C308   1.278       .  A
O299       Cu304   2.005       .  S
O299        C308   1.277       .  A
O300       Cu304   2.010       .  S
O300        C307   1.279       .  A
O301       Cu304   2.017       .  S
O301        C306   1.278       .  A
O302       Cu304   2.012       .  S
O302        C305   1.279       .  A
Cu303      Cu304   2.372       .  S
C305       C1668   1.483       .  S
C306       C2247   1.468       .  S
C307       C1716   1.479       .  S
C308       C2556   1.469       .  S
O309       Cu317   2.016       .  S
O309        C319   1.278       .  A
O310       Cu317   2.021       .  S
O310        C320   1.280       .  A
O311       Cu317   2.008       .  S
O311        C321   1.277       .  A
O312       Cu317   2.012       .  S
O312        C322   1.279       .  A
O313       Cu318   2.006       .  S
O313        C322   1.278       .  A
O314       Cu318   2.000       .  S
O314        C321   1.276       .  A
O315       Cu318   1.998       .  S
O315        C320   1.276       .  A
O316       Cu318   2.009       .  S
O316        C319   1.278       .  A
Cu317      Cu318   2.372       .  S
C319       C2007   1.473       .  S
C320       C1647   1.476       .  S
C321       C2319   1.465       .  S
C322       C1671   1.482       .  S
O323       Cu331   2.016       .  S
O323        C333   1.279       .  A
O324       Cu331   2.006       .  S
O324        C334   1.278       .  A
O325       Cu331   2.003       .  S
O325        C335   1.276       .  A
O326       Cu331   1.986       .  S
O326        C336   1.276       .  A
O327       Cu332   2.021       .  S
O327        C336   1.280       .  A
O328       Cu332   2.011       .  S
O328        C335   1.278       .  A
O329       Cu332   2.004       .  S
O329        C334   1.278       .  A
O330       Cu332   1.999       .  S
O330        C333   1.276       .  A
Cu331      Cu332   2.376       .  S
C333       C2079   1.470       .  S
C334       C1644   1.473       .  S
C335       C1791   1.466       .  S
C336       C1692   1.477       .  S
O337       Cu345   2.015       .  S
O337        C347   1.280       .  A
O338       Cu345   2.008       .  S
O338        C348   1.277       .  A
O339       Cu345   2.002       .  S
O339        C349   1.278       .  A
O340       Cu345   1.997       .  S
O340        C350   1.276       .  A
O341       Cu346   2.019       .  S
O341        C350   1.279       .  A
O342       Cu346   2.006       .  S
O342        C349   1.278       .  A
O343       Cu346   2.005       .  S
O343        C348   1.277       .  A
O344       Cu346   2.000       .  S
O344        C347   1.277       .  A
Cu345      Cu346   2.375       .  S
C347       C1623   1.479       .  S
C348       C2268   1.465       .  S
C349       C1596   1.478       .  S
C350       C1572   1.470       .  S
O351       Cu359   2.021       .  S
O351        C361   1.279       .  A
O352       Cu359   2.012       .  S
O352        C362   1.279       .  A
O353       Cu359   2.008       .  S
O353        C363   1.278       .  A
O354       Cu359   2.020       .  S
O354        C364   1.279       .  A
O355       Cu360   1.995       .  S
O355        C364   1.277       .  A
O356       Cu360   2.006       .  S
O356        C363   1.277       .  A
O357       Cu360   2.005       .  S
O357        C362   1.277       .  A
O358       Cu360   1.998       .  S
O358        C361   1.278       .  A
Cu359      Cu360   2.373       .  S
C361       C1548   1.482       .  S
C362       C1524   1.476       .  S
C363       C2220   1.471       .  S
C364       C1620   1.479       .  S
O365       Cu373   2.017       .  S
O365        C375   1.280       .  A
O366       Cu373   2.010       .  S
O366        C376   1.278       .  A
O367       Cu373   2.004       .  S
O367        C377   1.277       .  A
O368       Cu373   2.001       .  S
O368        C378   1.277       .  A
O369       Cu374   2.015       .  S
O369        C378   1.280       .  A
O370       Cu374   2.004       .  S
O370        C377   1.277       .  A
O371       Cu374   1.999       .  S
O371        C376   1.276       .  A
O372       Cu374   1.989       .  S
O372        C375   1.275       .  A
Cu373      Cu374   2.373       .  S
C375       C1503   1.477       .  S
C376       C1863   1.468       .  S
C377       C1476   1.469       .  S
C378       C1551   1.480       .  S
O379       Cu387   2.006       .  S
O379        C389   1.278       .  A
O380       Cu387   2.002       .  S
O380        C390   1.278       .  A
O381       Cu387   1.994       .  S
O381        C391   1.275       .  A
O382       Cu387   1.991       .  S
O382        C392   1.277       .  A
O383       Cu388   2.010       .  S
O383        C392   1.278       .  A
O384       Cu388   2.019       .  S
O384        C391   1.280       .  A
O385       Cu388   2.011       .  S
O385        C390   1.278       .  A
O386       Cu388   2.000       .  S
O386        C389   1.277       .  A
Cu387      Cu388   2.374       .  S
C389       C1599   1.478       .  S
C390       C1452   1.472       .  S
C391       C1911   1.469       .  S
C392       C1500   1.477       .  S
O393       Cu401   2.001       .  S
O393        C403   1.276       .  A
O394       Cu401   2.010       .  S
O394        C404   1.279       .  A
O395       Cu401   2.003       .  S
O395        C405   1.278       .  A
O396       Cu401   2.014       .  S
O396        C406   1.279       .  A
O397       Cu402   2.006       .  S
O397        C406   1.278       .  A
O398       Cu402   2.013       .  S
O398        C405   1.278       .  A
O399       Cu402   1.997       .  S
O399        C404   1.277       .  A
O400       Cu402   2.003       .  S
O400        C403   1.277       .  A
Cu401      Cu402   2.374       .  S
C403       C2031   1.463       .  S
C404       C1431   1.479       .  S
C405       C1380   1.475       .  S
C406       C1404   1.482       .  S
O407       Cu415   2.007       .  S
O407        C417   1.278       .  A
O408       Cu415   1.998       .  S
O408        C418   1.277       .  A
O409       Cu415   2.010       .  S
O409        C419   1.277       .  A
O410       Cu415   2.005       .  S
O410        C420   1.278       .  A
O411       Cu416   2.002       .  S
O411        C420   1.278       .  A
O412       Cu416   2.008       .  S
O412        C419   1.277       .  A
O413       Cu416   2.022       .  S
O413        C418   1.279       .  A
O414       Cu416   2.014       .  S
O414        C417   1.279       .  A
Cu415      Cu416   2.374       .  S
C417       C1359   1.478       .  S
C418       C1332   1.477       .  S
C419       C1983   1.467       .  S
C420       C1428   1.479       .  S
O421       Cu429   2.019       .  S
O421        C431   1.280       .  A
O422       Cu429   2.006       .  S
O422        C432   1.277       .  A
O423       Cu429   2.015       .  S
O423        C433   1.278       .  A
O424       Cu429   2.009       .  S
O424        C434   1.278       .  A
O425       Cu430   2.009       .  S
O425        C434   1.278       .  A
O426       Cu430   1.996       .  S
O426        C433   1.277       .  A
O427       Cu430   2.000       .  S
O427        C432   1.276       .  A
O428       Cu430   1.999       .  S
O428        C431   1.277       .  A
Cu429      Cu430   2.373       .  S
C431       C1308   1.483       .  S
C432       C2631   1.461       .  S
C433       C1284   1.475       .  S
C434       C1407   1.481       .  S
O435       Cu443   2.024       .  S
O435        C445   1.280       .  A
O436       Cu443   2.015       .  S
O436        C446   1.279       .  A
O437       Cu443   2.021       .  S
O437        C447   1.279       .  A
O438       Cu443   2.016       .  S
O438        C448   1.278       .  A
O439       Cu444   2.010       .  S
O439        C448   1.277       .  A
O440       Cu444   2.000       .  S
O440        C447   1.277       .  A
O441       Cu444   2.010       .  S
O441        C446   1.279       .  A
O442       Cu444   1.998       .  S
O442        C445   1.277       .  A
Cu443      Cu444   2.373       .  S
C445       C2583   1.477       .  S
C446       C1311   1.485       .  S
C447       C1356   1.478       .  S
C448       C1260   1.470       .  S
O449       Cu457   2.020       .  S
O449        C459   1.280       .  A
O450       Cu457   2.010       .  S
O450        C460   1.278       .  A
O451       Cu457   2.010       .  S
O451        C461   1.277       .  A
O452       Cu457   2.002       .  S
O452        C462   1.277       .  A
O453       Cu458   2.015       .  S
O453        C462   1.280       .  A
O454       Cu458   2.007       .  S
O454        C461   1.278       .  A
O455       Cu458   2.006       .  S
O455        C460   1.278       .  A
O456       Cu458   1.999       .  S
O456        C459   1.277       .  A
Cu457      Cu458   2.372       .  S
C459       C1236   1.482       .  S
C460       C1743   1.475       .  S
C461       C1191   1.470       .  S
C462       C1212   1.481       .  S
O463       Cu471   2.011       .  S
O463        C473   1.279       .  A
O464       Cu471   2.002       .  S
O464        C474   1.277       .  A
O465       Cu471   2.005       .  S
O465        C475   1.277       .  A
O466       Cu471   1.998       .  S
O466        C476   1.277       .  A
O467       Cu472   2.011       .  S
O467        C476   1.279       .  A
O468       Cu472   2.008       .  S
O468        C475   1.278       .  A
O469       Cu472   2.012       .  S
O469        C474   1.278       .  A
O470       Cu472   2.005       .  S
O470        C473   1.278       .  A
Cu471      Cu472   2.372       .  S
C473       C1239   1.481       .  S
C474       C1767   1.471       .  S
C475       C1140   1.472       .  S
C476       C1167   1.479       .  S
O477       Cu485   2.009       .  S
O477        C487   1.279       .  A
O478       Cu485   2.018       .  S
O478        C488   1.279       .  A
O479       Cu485   2.003       .  S
O479        C489   1.276       .  A
O480       Cu485   2.004       .  S
O480        C490   1.278       .  A
O481       Cu486   2.008       .  S
O481        C490   1.278       .  A
O482       Cu486   2.016       .  S
O482        C489   1.279       .  A
O483       Cu486   2.002       .  S
O483        C488   1.277       .  A
O484       Cu486   2.010       .  S
O484        C487   1.278       .  A
Cu485      Cu486   2.371       .  S
C487       C1116   1.483       .  S
C488       C2343   1.476       .  S
C489       C1092   1.472       .  S
C490       C1164   1.480       .  S
O491       Cu499   2.006       .  S
O491        C501   1.278       .  A
O492       Cu499   2.012       .  S
O492        C502   1.278       .  A
O493       Cu499   2.000       .  S
O493        C503   1.277       .  A
O494       Cu499   2.006       .  S
O494        C504   1.278       .  A
O495       Cu500   2.016       .  S
O495        C504   1.279       .  A
O496       Cu500   2.016       .  S
O496        C503   1.279       .  A
O497       Cu500   2.005       .  S
O497        C502   1.276       .  A
O498       Cu500   2.010       .  S
O498        C501   1.279       .  A
Cu499      Cu500   2.373       .  S
C501       C1119   1.482       .  S
C502       C2388   1.464       .  S
C503       C1071   1.474       .  S
C504       C1215   1.482       .  S
O505       Cu513   2.005       .  S
O505        C515   1.278       .  A
O506       Cu513   1.994       .  S
O506        C516   1.277       .  A
O507       Cu513   2.003       .  S
O507        C517   1.278       .  A
O508       Cu513   2.011       .  S
O508        C518   1.278       .  A
O509       Cu514   2.017       .  S
O509        C518   1.279       .  A
O510       Cu514   2.026       .  S
O510        C517   1.280       .  A
O511       Cu514   2.024       .  S
O511        C516   1.280       .  A
O512       Cu514   2.016       .  S
O512        C515   1.278       .  A
Cu513      Cu514   2.371       .  S
C515       C2508   1.475       .  S
C516       C1044   1.483       .  S
C517       C1020   1.479       .  S
C518        C996   1.482       .  S
O519       Cu527   2.006       .  S
O519        C529   1.277       .  A
O520       Cu527   1.995       .  S
O520        C530   1.277       .  A
O521       Cu527   2.015       .  S
O521        C531   1.280       .  A
O522       Cu527   2.008       .  S
O522        C532   1.277       .  A
O523       Cu528   2.006       .  S
O523        C532   1.278       .  A
O524       Cu528   2.002       .  S
O524        C531   1.277       .  A
O525       Cu528   2.018       .  S
O525        C530   1.280       .  A
O526       Cu528   2.011       .  S
O526        C529   1.278       .  A
Cu527      Cu528   2.372       .  S
C529        C948   1.473       .  S
C530        C975   1.481       .  S
C531       C1047   1.482       .  S
C532       C2460   1.471       .  S
O533       Cu541   2.019       .  S
O533        C543   1.279       .  A
O534       Cu541   2.006       .  S
O534        C544   1.279       .  A
O535       Cu541   2.006       .  S
O535        C545   1.278       .  A
O536       Cu541   2.002       .  S
O536        C546   1.277       .  A
O537       Cu542   2.006       .  S
O537        C546   1.277       .  A
O538       Cu542   2.005       .  S
O538        C545   1.278       .  A
O539       Cu542   2.015       .  S
O539        C544   1.279       .  A
O540       Cu542   2.008       .  S
O540        C543   1.278       .  A
Cu541      Cu542   2.371       .  S
C543       C2103   1.481       .  S
C544        C927   1.483       .  S
C545        C972   1.480       .  S
C546        C900   1.468       .  S
O547       Cu555   2.016       .  S
O547        C557   1.280       .  A
O548       Cu555   2.004       .  S
O548        C558   1.277       .  A
O549       Cu555   1.995       .  S
O549        C559   1.276       .  A
O550       Cu555   1.984       .  S
O550        C560   1.276       .  A
O551       Cu556   2.030       .  S
O551        C560   1.281       .  A
O552       Cu556   2.010       .  S
O552        C559   1.278       .  A
O553       Cu556   2.003       .  S
O553        C558   1.276       .  A
O554       Cu556   2.006       .  S
O554        C557   1.277       .  A
Cu555      Cu556   2.375       .  S
C557       C1023   1.477       .  S
C558        C876   1.464       .  S
C559       C2148   1.468       .  S
C560        C924   1.482       .  S
O561       Cu569   1.998       .  S
O561        C571   1.276       .  A
O562       Cu569   2.002       .  S
O562        C572   1.276       .  A
O563       Cu569   2.024       .  S
O563        C573   1.280       .  A
O564       Cu569   2.015       .  S
O564        C574   1.280       .  A
O565       Cu570   2.005       .  S
O565        C574   1.277       .  A
O566       Cu570   1.995       .  S
O566        C573   1.276       .  A
O567       Cu570   2.003       .  S
O567        C572   1.277       .  A
O568       Cu570   2.008       .  S
O568        C571   1.279       .  A
Cu569      Cu570   2.374       .  S
C571        C831   1.478       .  S
C572       C1287   1.462       .  S
C573       C1575   1.474       .  S
C574        C855   1.482       .  S
O575       Cu583   2.016       .  S
O575        C585   1.279       .  A
O576       Cu583   2.015       .  S
O576        C586   1.278       .  A
O577       Cu583   2.004       .  S
O577        C587   1.278       .  A
O578       Cu583   2.021       .  S
O578        C588   1.278       .  A
O579       Cu584   2.007       .  S
O579        C588   1.277       .  A
O580       Cu584   2.015       .  S
O580        C587   1.278       .  A
O581       Cu584   2.004       .  S
O581        C586   1.277       .  A
O582       Cu584   1.998       .  S
O582        C585   1.278       .  A
Cu583      Cu584   2.372       .  S
C585        C852   1.481       .  S
C586       C1455   1.471       .  S
C587        C804   1.480       .  S
C588        C999   1.471       .  S
O589       Cu597   2.006       .  S
O589        C599   1.277       .  A
O590       Cu597   1.999       .  S
O590        C600   1.276       .  A
O591       Cu597   2.008       .  S
O591        C601   1.278       .  A
O592       Cu597   2.003       .  S
O592        C602   1.278       .  A
O593       Cu598   2.007       .  S
O593        C602   1.278       .  A
O594       Cu598   2.005       .  S
O594        C601   1.278       .  A
O595       Cu598   2.008       .  S
O595        C600   1.279       .  A
O596       Cu598   2.005       .  S
O596        C599   1.279       .  A
Cu597      Cu598   2.371       .  S
C599        C807   1.478       .  S
C600        C879   1.473       .  S
C601       C1188   1.473       .  S
C602        C780   1.479       .  S
O603       Cu611   2.005       .  S
O603        C613   1.278       .  A
O604       Cu611   1.996       .  S
O604        C614   1.275       .  A
O605       Cu611   1.998       .  S
O605        C615   1.278       .  A
O606       Cu611   2.010       .  S
O606        C616   1.277       .  A
O607       Cu612   2.004       .  S
O607        C616   1.277       .  A
O608       Cu612   2.008       .  S
O608        C615   1.278       .  A
O609       Cu612   2.016       .  S
O609        C614   1.279       .  A
O610       Cu612   2.011       .  S
O610        C613   1.279       .  A
Cu611      Cu612   2.372       .  S
C613        C783   1.481       .  S
C614       C1068   1.468       .  S
C615        C828   1.478       .  S
C616       C1383   1.468       .  S
O617       Cu625   2.014       .  S
O617        C627   1.278       .  A
O618       Cu625   2.003       .  S
O618        C628   1.277       .  A
O619       Cu625   2.003       .  S
O619        C629   1.277       .  A
O620       Cu625   1.994       .  S
O620        C630   1.277       .  A
O621       Cu626   2.017       .  S
O621        C630   1.279       .  A
O622       Cu626   2.005       .  S
O622        C629   1.277       .  A
O623       Cu626   1.999       .  S
O623        C628   1.278       .  A
O624       Cu626   2.007       .  S
O624        C627   1.277       .  A
Cu625      Cu626   2.375       .  S
C627        C951   1.471       .  S
C628        C756   1.477       .  S
C629       C1479   1.467       .  S
C630        C732   1.478       .  S
O631       Cu639   2.007       .  S
O631        C641   1.278       .  A
O632       Cu639   2.014       .  S
O632        C642   1.278       .  A
O633       Cu639   2.008       .  S
O633        C643   1.278       .  A
O634       Cu639   1.993       .  S
O634        C644   1.277       .  A
O635       Cu640   2.007       .  S
O635        C644   1.278       .  A
O636       Cu640   2.000       .  S
O636        C643   1.277       .  A
O637       Cu640   2.002       .  S
O637        C642   1.277       .  A
O638       Cu640   2.005       .  S
O638        C641   1.278       .  A
Cu639      Cu640   2.374       .  S
C641        C708   1.479       .  S
C642       C1143   1.470       .  S
C643        C903   1.469       .  S
C644        C759   1.477       .  S
O645       Cu653   2.020       .  S
O645        C655   1.279       .  A
O646       Cu653   2.011       .  S
O646        C656   1.279       .  A
O647       Cu653   2.005       .  S
O647        C657   1.278       .  A
O648       Cu653   2.002       .  S
O648        C658   1.275       .  A
O649       Cu654   2.012       .  S
O649        C658   1.279       .  A
O650       Cu654   2.000       .  S
O650        C657   1.277       .  A
O651       Cu654   2.007       .  S
O651        C656   1.278       .  A
O652       Cu654   2.001       .  S
O652        C655   1.277       .  A
Cu653      Cu654   2.373       .  S
C655       C1095   1.475       .  S
C656        C711   1.479       .  S
C657        C684   1.477       .  S
C658       C1335   1.467       .  S
O659       Cu667   2.009       .  S
O659        C669   1.277       .  A
O660       Cu667   2.013       .  S
O660        C670   1.280       .  A
O661       Cu667   2.009       .  S
O661        C671   1.278       .  A
O662       Cu667   1.997       .  S
O662        C672   1.276       .  A
O663       Cu668   2.006       .  S
O663        C672   1.279       .  A
O664       Cu668   2.014       .  S
O664        C671   1.279       .  A
O665       Cu668   2.005       .  S
O665        C670   1.277       .  A
O666       Cu668   2.008       .  S
O666        C669   1.277       .  A
Cu667      Cu668   2.372       .  S
C669       C1527   1.468       .  S
C670        C735   1.479       .  S
C671       C1263   1.481       .  S
C672        C687   1.475       .  S
C673        C674   1.398       .  A
C673        C678   1.404       .  A
C673        H689   1.084       .  S
C674        C675   1.403       .  A
C674        H690   1.084       .  S
C675        C685   1.401       .  A
C675        C676   1.411       .  A
C676        C682   1.411       .  A
C676        C677   1.409       .  A
C677        C679   1.411       .  A
C677        C678   1.411       .  A
C678        C686   1.402       .  A
C679        C688   1.399       .  A
C679        C680   1.402       .  A
C680        C681   1.397       .  A
C680        H691   1.084       .  S
C681        C682   1.403       .  A
C681        H692   1.084       .  S
C682        C683   1.400       .  A
C683        C684   1.406       .  A
C683        H693   1.084       .  S
C684        C685   1.407       .  A
C685        H694   1.084       .  S
C686        C687   1.407       .  A
C686        H695   1.084       .  S
C687        C688   1.405       .  A
C688        H696   1.084       .  S
C697        C698   1.397       .  A
C697        C702   1.403       .  A
C697        H713   1.084       .  S
C698        C699   1.403       .  A
C698        H714   1.084       .  S
C699        C709   1.401       .  A
C699        C700   1.411       .  A
C700        C706   1.411       .  A
C700        C701   1.411       .  A
C701        C703   1.411       .  A
C701        C702   1.411       .  A
C702        C710   1.401       .  A
C703        C712   1.404       .  A
C703        C704   1.404       .  A
C704        C705   1.400       .  A
C704        H715   1.083       .  S
C705        C706   1.404       .  A
C705        H716   1.084       .  S
C706        C707   1.404       .  A
C707        C708   1.408       .  A
C707        H717   1.084       .  S
C708        C709   1.406       .  A
C709        H718   1.084       .  S
C710        C711   1.405       .  A
C710        H719   1.084       .  S
C711        C712   1.408       .  A
C712        H720   1.084       .  S
C721        C722   1.401       .  A
C721        C726   1.405       .  A
C721        H737   1.084       .  S
C722        C723   1.404       .  A
C722        H738   1.084       .  S
C723        C733   1.406       .  A
C723        C724   1.412       .  A
C724        C730   1.411       .  A
C724        C725   1.411       .  A
C725        C727   1.412       .  A
C725        C726   1.411       .  A
C726        C734   1.405       .  A
C727        C736   1.400       .  A
C727        C728   1.402       .  A
C728        C729   1.396       .  A
C728        H739   1.083       .  S
C729        C730   1.402       .  A
C729        H740   1.084       .  S
C730        C731   1.398       .  A
C731        C732   1.405       .  A
C731        H741   1.084       .  S
C732        C733   1.408       .  A
C733        H742   1.084       .  S
C734        C735   1.409       .  A
C734        H743   1.084       .  S
C735        C736   1.404       .  A
C736        H744   1.084       .  S
C745        C746   1.396       .  A
C745        C750   1.402       .  A
C745        H761   1.084       .  S
C746        C747   1.402       .  A
C746        H762   1.084       .  S
C747        C757   1.398       .  A
C747        C748   1.411       .  A
C748        C754   1.411       .  A
C748        C749   1.409       .  A
C749        C751   1.411       .  A
C749        C750   1.411       .  A
C750        C758   1.398       .  A
C751        C760   1.402       .  A
C751        C752   1.403       .  A
C752        C753   1.399       .  A
C752        H763   1.084       .  S
C753        C754   1.404       .  A
C753        H764   1.083       .  S
C754        C755   1.402       .  A
C755        C756   1.408       .  A
C755        H765   1.084       .  S
C756        C757   1.406       .  A
C757        H766   1.084       .  S
C758        C759   1.406       .  A
C758        H767   1.084       .  S
C759        C760   1.407       .  A
C760        H768   1.084       .  S
C769        C770   1.399       .  A
C769        C774   1.404       .  A
C769        H785   1.084       .  S
C770        C771   1.403       .  A
C770        H786   1.084       .  S
C771        C781   1.403       .  A
C771        C772   1.412       .  A
C772        C778   1.411       .  A
C772        C773   1.411       .  A
C773        C775   1.412       .  A
C773        C774   1.411       .  A
C774        C782   1.402       .  A
C775        C784   1.402       .  A
C775        C776   1.403       .  A
C776        C777   1.398       .  A
C776        H787   1.083       .  S
C777        C778   1.403       .  A
C777        H788   1.084       .  S
C778        C779   1.400       .  A
C779        C780   1.406       .  A
C779        H789   1.084       .  S
C780        C781   1.408       .  A
C781        H790   1.084       .  S
C782        C783   1.408       .  A
C782        H791   1.084       .  S
C783        C784   1.407       .  A
C784        H792   1.084       .  S
C793        C794   1.397       .  A
C793        C798   1.402       .  A
C793        H809   1.084       .  S
C794        C795   1.403       .  A
C794        H810   1.084       .  S
C795        C805   1.399       .  A
C795        C796   1.411       .  A
C796        C802   1.412       .  A
C796        C797   1.411       .  A
C797        C799   1.411       .  A
C797        C798   1.411       .  A
C798        C806   1.400       .  A
C799        C808   1.404       .  A
C799        C800   1.404       .  A
C800        C801   1.400       .  A
C800        H811   1.084       .  S
C801        C802   1.404       .  A
C801        H812   1.083       .  S
C802        C803   1.406       .  A
C803        C804   1.408       .  A
C803        H813   1.084       .  S
C804        C805   1.406       .  A
C805        H814   1.084       .  S
C806        C807   1.405       .  A
C806        H815   1.084       .  S
C807        C808   1.408       .  A
C808        H816   1.084       .  S
C817        C818   1.396       .  A
C817        C822   1.402       .  A
C817        H833   1.083       .  S
C818        C819   1.402       .  A
C818        H834   1.084       .  S
C819        C829   1.398       .  A
C819        C820   1.410       .  A
C820        C826   1.412       .  A
C820        C821   1.410       .  A
C821        C823   1.411       .  A
C821        C822   1.411       .  A
C822        C830   1.399       .  A
C823        C832   1.403       .  A
C823        C824   1.404       .  A
C824        C825   1.400       .  A
C824        H835   1.084       .  S
C825        C826   1.404       .  A
C825        H836   1.084       .  S
C826        C827   1.404       .  A
C827        C828   1.408       .  A
C827        H837   1.084       .  S
C828        C829   1.406       .  A
C829        H838   1.084       .  S
C830        C831   1.405       .  A
C830        H839   1.084       .  S
C831        C832   1.409       .  A
C832        H840   1.084       .  S
C841        C842   1.397       .  A
C841        C846   1.403       .  A
C841        H857   1.083       .  S
C842        C843   1.403       .  A
C842        H858   1.084       .  S
C843        C853   1.400       .  A
C843        C844   1.410       .  A
C844        C850   1.412       .  A
C844        C845   1.412       .  A
C845        C847   1.411       .  A
C845        C846   1.412       .  A
C846        C854   1.402       .  A
C847        C856   1.404       .  A
C847        C848   1.404       .  A
C848        C849   1.400       .  A
C848        H859   1.084       .  S
C849        C850   1.404       .  A
C849        H860   1.084       .  S
C850        C851   1.405       .  A
C851        C852   1.408       .  A
C851        H861   1.084       .  S
C852        C853   1.407       .  A
C853        H862   1.084       .  S
C854        C855   1.406       .  A
C854        H863   1.084       .  S
C855        C856   1.409       .  A
C856        H864   1.084       .  S
C865        C866   1.397       .  A
C865        C870   1.403       .  A
C865        H881   1.084       .  S
C866        C867   1.402       .  A
C866        H882   1.083       .  S
C867        C877   1.399       .  A
C867        C868   1.412       .  A
C868        C874   1.412       .  A
C868        C869   1.409       .  A
C869        C871   1.411       .  A
C869        C870   1.412       .  A
C870        C878   1.400       .  A
C871        C880   1.402       .  A
C871        C872   1.404       .  A
C872        C873   1.399       .  A
C872        H883   1.083       .  S
C873        C874   1.404       .  A
C873        H884   1.084       .  S
C874        C875   1.403       .  A
C875        C876   1.404       .  A
C875        H885   1.085       .  S
C876        C877   1.401       .  A
C877        H886   1.085       .  S
C878        C879   1.404       .  A
C878        H887   1.084       .  S
C879        C880   1.406       .  A
C880        H888   1.084       .  S
C889        C890   1.399       .  A
C889        C894   1.403       .  A
C889        H905   1.084       .  S
C890        C891   1.403       .  A
C890        H906   1.084       .  S
C891        C901   1.401       .  A
C891        C892   1.412       .  A
C892        C898   1.412       .  A
C892        C893   1.410       .  A
C893        C895   1.412       .  A
C893        C894   1.412       .  A
C894        C902   1.402       .  A
C895        C904   1.401       .  A
C895        C896   1.403       .  A
C896        C897   1.398       .  A
C896        H907   1.083       .  S
C897        C898   1.403       .  A
C897        H908   1.084       .  S
C898        C899   1.401       .  A
C899        C900   1.403       .  A
C899        H909   1.084       .  S
C900        C901   1.404       .  A
C901        H910   1.084       .  S
C902        C903   1.404       .  A
C902        H911   1.084       .  S
C903        C904   1.404       .  A
C904        H912   1.084       .  S
C913        C914   1.401   1_556  A
C913        C918   1.405       .  A
C913        H929   1.083       .  S
C914        C915   1.404       .  A
C914        H930   1.084       .  S
C915        C925   1.407       .  A
C915        C916   1.413       .  A
C916        C922   1.410       .  A
C916        C917   1.412   1_554  A
C917        C919   1.411       .  A
C917        C918   1.411       .  A
C918        C926   1.406       .  A
C919        C928   1.400       .  A
C919        C920   1.402       .  A
C920        C921   1.396   1_556  A
C920        H931   1.084       .  S
C921        C922   1.403       .  A
C921        H932   1.084       .  S
C922        C923   1.398       .  A
C923        C924   1.408       .  A
C923        H933   1.084       .  S
C924        C925   1.408       .  A
C925        H934   1.084       .  S
C926        C927   1.409       .  A
C926        H935   1.084       .  S
C927        C928   1.406       .  A
C928        H936   1.084       .  S
C937        C938   1.400       .  A
C937        C942   1.404       .  A
C937        H953   1.083       .  S
C938        C939   1.404       .  A
C938        H954   1.083       .  S
C939        C949   1.404       .  A
C939        C940   1.412       .  A
C940        C946   1.412       .  A
C940        C941   1.412       .  A
C941        C943   1.412       .  A
C941        C942   1.412       .  A
C942        C950   1.404       .  A
C943        C952   1.403       .  A
C943        C944   1.403       .  A
C944        C945   1.399       .  A
C944        H955   1.083       .  S
C945        C946   1.403       .  A
C945        H956   1.084       .  S
C946        C947   1.402       .  A
C947        C948   1.404       .  A
C947        H957   1.084       .  S
C948        C949   1.405       .  A
C949        H958   1.084       .  S
C950        C951   1.405       .  A
C950        H959   1.084       .  S
C951        C952   1.403       .  A
C952        H960   1.084       .  S
C961        C962   1.397   1_455  A
C961        C966   1.403       .  A
C961        H977   1.084       .  S
C962        C963   1.403       .  A
C962        H978   1.084       .  S
C963        C973   1.401       .  A
C963        C964   1.411       .  A
C964        C970   1.411       .  A
C964        C965   1.411   1_655  A
C965        C967   1.412       .  A
C965        C966   1.410       .  A
C966        C974   1.400       .  A
C967        C976   1.404       .  A
C967        C968   1.404       .  A
C968        C969   1.399   1_455  A
C968        H979   1.084       .  S
C969        C970   1.404       .  A
C969        H980   1.083       .  S
C970        C971   1.403       .  A
C971        C972   1.408       .  A
C971        H981   1.084       .  S
C972        C973   1.407       .  A
C973        H982   1.084       .  S
C974        C975   1.408       .  A
C974        H983   1.084       .  S
C975        C976   1.407       .  A
C976        H984   1.084       .  S
C985        C986   1.400       .  A
C985        C990   1.404       .  A
C985       H1001   1.083       .  S
C986        C987   1.404       .  A
C986       H1002   1.083       .  S
C987        C997   1.405       .  A
C987        C988   1.411       .  A
C988        C994   1.412       .  A
C988        C989   1.413       .  A
C989        C991   1.411       .  A
C989        C990   1.414       .  A
C990        C998   1.407       .  A
C991       C1000   1.402       .  A
C991        C992   1.403       .  A
C992        C993   1.399       .  A
C992       H1003   1.084       .  S
C993        C994   1.404       .  A
C993       H1004   1.083       .  S
C994        C995   1.404       .  A
C995        C996   1.407       .  A
C995       H1005   1.084       .  S
C996        C997   1.408       .  A
C997       H1006   1.084       .  S
C998        C999   1.404       .  A
C998       H1007   1.084       .  S
C999       C1000   1.404       .  A
C1000      H1008   1.085       .  S
C1009      C1010   1.401   1_655  A
C1009      C1014   1.404       .  A
C1009      H1025   1.083       .  S
C1010      C1011   1.404       .  A
C1010      H1026   1.083       .  S
C1011      C1021   1.407       .  A
C1011      C1012   1.413       .  A
C1012      C1018   1.411       .  A
C1012      C1013   1.413   1_455  A
C1013      C1015   1.412       .  A
C1013      C1014   1.411       .  A
C1014      C1022   1.405       .  A
C1015      C1024   1.403       .  A
C1015      C1016   1.403       .  A
C1016      C1017   1.398   1_655  A
C1016      H1027   1.083       .  S
C1017      C1018   1.403       .  A
C1017      H1028   1.084       .  S
C1018      C1019   1.401       .  A
C1019      C1020   1.406       .  A
C1019      H1029   1.084       .  S
C1020      C1021   1.407       .  A
C1021      H1030   1.084       .  S
C1022      C1023   1.407       .  A
C1022      H1031   1.084       .  S
C1023      C1024   1.404       .  A
C1024      H1032   1.084       .  S
C1033      C1034   1.400   1_556  A
C1033      C1038   1.404       .  A
C1033      H1049   1.084       .  S
C1034      C1035   1.404       .  A
C1034      H1050   1.083       .  S
C1035      C1045   1.406       .  A
C1035      C1036   1.412       .  A
C1036      C1042   1.410       .  A
C1036      C1037   1.412   1_554  A
C1037      C1039   1.412       .  A
C1037      C1038   1.410       .  A
C1038      C1046   1.404       .  A
C1039      C1048   1.402       .  A
C1039      C1040   1.403       .  A
C1040      C1041   1.397   1_556  A
C1040      H1051   1.084       .  S
C1041      C1042   1.403       .  A
C1041      H1052   1.084       .  S
C1042      C1043   1.400       .  A
C1043      C1044   1.408       .  A
C1043      H1053   1.084       .  S
C1044      C1045   1.408       .  A
C1045      H1054   1.084       .  S
C1046      C1047   1.409       .  A
C1046      H1055   1.084       .  S
C1047      C1048   1.406       .  A
C1048      H1056   1.084       .  S
C1057      C1058   1.398       .  A
C1057      C1062   1.403       .  A
C1057      H1073   1.083       .  S
C1058      C1059   1.403       .  A
C1058      H1074   1.084       .  S
C1059      C1069   1.401       .  A
C1059      C1060   1.412       .  A
C1060      C1066   1.412       .  A
C1060      C1061   1.411       .  A
C1061      C1063   1.411       .  A
C1061      C1062   1.412       .  A
C1062      C1070   1.402       .  A
C1063      C1072   1.403       .  A
C1063      C1064   1.404       .  A
C1064      C1065   1.400       .  A
C1064      H1075   1.084       .  S
C1065      C1066   1.404       .  A
C1065      H1076   1.083       .  S
C1066      C1067   1.403       .  A
C1067      C1068   1.405       .  A
C1067      H1077   1.084       .  S
C1068      C1069   1.402       .  A
C1069      H1078   1.085       .  S
C1070      C1071   1.404       .  A
C1070      H1079   1.084       .  S
C1071      C1072   1.407       .  A
C1072      H1080   1.084       .  S
C1081      C1082   1.398       .  A
C1081      C1086   1.403       .  A
C1081      H1097   1.083       .  S
C1082      C1083   1.403       .  A
C1082      H1098   1.083       .  S
C1083      C1093   1.402       .  A
C1083      C1084   1.413       .  A
C1084      C1090   1.412       .  A
C1084      C1085   1.412       .  A
C1085      C1087   1.413       .  A
C1085      C1086   1.411       .  A
C1086      C1094   1.401       .  A
C1087      C1096   1.406       .  A
C1087      C1088   1.404       .  A
C1088      C1089   1.400       .  A
C1088      H1099   1.083       .  S
C1089      C1090   1.404       .  A
C1089      H1100   1.083       .  S
C1090      C1091   1.404       .  A
C1091      C1092   1.406       .  A
C1091      H1101   1.084       .  S
C1092      C1093   1.403       .  A
C1093      H1102   1.084       .  S
C1094      C1095   1.405       .  A
C1094      H1103   1.084       .  S
C1095      C1096   1.406       .  A
C1096      H1104   1.084       .  S
C1105      C1106   1.397   1_554  A
C1105      C1110   1.403       .  A
C1105      H1121   1.084       .  S
C1106      C1107   1.403       .  A
C1106      H1122   1.084       .  S
C1107      C1117   1.401       .  A
C1107      C1108   1.411       .  A
C1108      C1114   1.411       .  A
C1108      C1109   1.412   1_556  A
C1109      C1111   1.411       .  A
C1109      C1110   1.411       .  A
C1110      C1118   1.401       .  A
C1111      C1120   1.404       .  A
C1111      C1112   1.404       .  A
C1112      C1113   1.400   1_554  A
C1112      H1123   1.084       .  S
C1113      C1114   1.404       .  A
C1113      H1124   1.083       .  S
C1114      C1115   1.404       .  A
C1115      C1116   1.409       .  A
C1115      H1125   1.084       .  S
C1116      C1117   1.407       .  A
C1117      H1126   1.084       .  S
C1118      C1119   1.407       .  A
C1118      H1127   1.084       .  S
C1119      C1120   1.409       .  A
C1120      H1128   1.084       .  S
C1129      C1130   1.399       .  A
C1129      C1134   1.404       .  A
C1129      H1145   1.083       .  S
C1130      C1131   1.404       .  A
C1130      H1146   1.084       .  S
C1131      C1141   1.402       .  A
C1131      C1132   1.411       .  A
C1132      C1138   1.412       .  A
C1132      C1133   1.411       .  A
C1133      C1135   1.412       .  A
C1133      C1134   1.413       .  A
C1134      C1142   1.404       .  A
C1135      C1144   1.401       .  A
C1135      C1136   1.403       .  A
C1136      C1137   1.398       .  A
C1136      H1147   1.084       .  S
C1137      C1138   1.403       .  A
C1137      H1148   1.083       .  S
C1138      C1139   1.402       .  A
C1139      C1140   1.404       .  A
C1139      H1149   1.084       .  S
C1140      C1141   1.405       .  A
C1141      H1150   1.084       .  S
C1142      C1143   1.405       .  A
C1142      H1151   1.084       .  S
C1143      C1144   1.403       .  A
C1144      H1152   1.085       .  S
C1153      C1154   1.398   1_565  A
C1153      C1158   1.403       .  A
C1153      H1169   1.083       .  S
C1154      C1155   1.403       .  A
C1154      H1170   1.084       .  S
C1155      C1165   1.400       .  A
C1155      C1156   1.410       .  A
C1156      C1162   1.412       .  A
C1156      C1157   1.410   1_545  A
C1157      C1159   1.411       .  A
C1157      C1158   1.412       .  A
C1158      C1166   1.401       .  A
C1159      C1168   1.401       .  A
C1159      C1160   1.403       .  A
C1160      C1161   1.399   1_565  A
C1160      H1171   1.084       .  S
C1161      C1162   1.403       .  A
C1161      H1172   1.083       .  S
C1162      C1163   1.403       .  A
C1163      C1164   1.407       .  A
C1163      H1173   1.084       .  S
C1164      C1165   1.407       .  A
C1165      H1174   1.084       .  S
C1166      C1167   1.406       .  A
C1166      H1175   1.084       .  S
C1167      C1168   1.408       .  A
C1168      H1176   1.084       .  S
C1177      C1178   1.398       .  A
C1177      C1182   1.403       .  A
C1177      H1193   1.083       .  S
C1178      C1179   1.403       .  A
C1178      H1194   1.084       .  S
C1179      C1189   1.401       .  A
C1179      C1180   1.412       .  A
C1180      C1186   1.412       .  A
C1180      C1181   1.411       .  A
C1181      C1183   1.412       .  A
C1181      C1182   1.412       .  A
C1182      C1190   1.401       .  A
C1183      C1192   1.404       .  A
C1183      C1184   1.404       .  A
C1184      C1185   1.400       .  A
C1184      H1195   1.084       .  S
C1185      C1186   1.404       .  A
C1185      H1196   1.083       .  S
C1186      C1187   1.403       .  A
C1187      C1188   1.406       .  A
C1187      H1197   1.084       .  S
C1188      C1189   1.404       .  A
C1189      H1198   1.084       .  S
C1190      C1191   1.403       .  A
C1190      H1199   1.085       .  S
C1191      C1192   1.405       .  A
C1192      H1200   1.084       .  S
C1201      C1202   1.398   1_545  A
C1201      C1206   1.403       .  A
C1201      H1217   1.084       .  S
C1202      C1203   1.403       .  A
C1202      H1218   1.084       .  S
C1203      C1213   1.402       .  A
C1203      C1204   1.412       .  A
C1204      C1210   1.411       .  A
C1204      C1205   1.412   1_565  A
C1205      C1207   1.412       .  A
C1205      C1206   1.410       .  A
C1206      C1214   1.401       .  A
C1207      C1216   1.405       .  A
C1207      C1208   1.404       .  A
C1208      C1209   1.400   1_545  A
C1208      H1219   1.084       .  S
C1209      C1210   1.404       .  A
C1209      H1220   1.084       .  S
C1210      C1211   1.403       .  A
C1211      C1212   1.409       .  A
C1211      H1221   1.084       .  S
C1212      C1213   1.406       .  A
C1213      H1222   1.084       .  S
C1214      C1215   1.407       .  A
C1214      H1223   1.084       .  S
C1215      C1216   1.408       .  A
C1216      H1224   1.084       .  S
C1225      C1226   1.398   1_556  A
C1225      C1230   1.403       .  A
C1225      H1241   1.084       .  S
C1226      C1227   1.403       .  A
C1226      H1242   1.084       .  S
C1227      C1237   1.402       .  A
C1227      C1228   1.412       .  A
C1228      C1234   1.411       .  A
C1228      C1229   1.412   1_554  A
C1229      C1231   1.411       .  A
C1229      C1230   1.411       .  A
C1230      C1238   1.402       .  A
C1231      C1240   1.404       .  A
C1231      C1232   1.404       .  A
C1232      C1233   1.399   1_556  A
C1232      H1243   1.084       .  S
C1233      C1234   1.404       .  A
C1233      H1244   1.084       .  S
C1234      C1235   1.403       .  A
C1235      C1236   1.409       .  A
C1235      H1245   1.084       .  S
C1236      C1237   1.406       .  A
C1237      H1246   1.084       .  S
C1238      C1239   1.407       .  A
C1238      H1247   1.084       .  S
C1239      C1240   1.408       .  A
C1240      H1248   1.084       .  S
C1249      C1250   1.399       .  A
C1249      C1254   1.404       .  A
C1249      H1265   1.083       .  S
C1250      C1251   1.403       .  A
C1250      H1266   1.083       .  S
C1251      C1261   1.405       .  A
C1251      C1252   1.413       .  A
C1252      C1258   1.412       .  A
C1252      C1253   1.413       .  A
C1253      C1255   1.412       .  A
C1253      C1254   1.411       .  A
C1254      C1262   1.403       .  A
C1255      C1264   1.405       .  A
C1255      C1256   1.404       .  A
C1256      C1257   1.400       .  A
C1256      H1267   1.084       .  S
C1257      C1258   1.404       .  A
C1257      H1268   1.083       .  S
C1258      C1259   1.403       .  A
C1259      C1260   1.403       .  A
C1259      H1269   1.084       .  S
C1260      C1261   1.404       .  A
C1261      H1270   1.084       .  S
C1262      C1263   1.407       .  A
C1262      H1271   1.084       .  S
C1263      C1264   1.407       .  A
C1264      H1272   1.084       .  S
C1273      C1274   1.396       .  A
C1273      C1278   1.402       .  A
C1273      H1289   1.084       .  S
C1274      C1275   1.403       .  A
C1274      H1290   1.084       .  S
C1275      C1285   1.398       .  A
C1275      C1276   1.411       .  A
C1276      C1282   1.412       .  A
C1276      C1277   1.410       .  A
C1277      C1279   1.412       .  A
C1277      C1278   1.413       .  A
C1278      C1286   1.399       .  A
C1279      C1288   1.403       .  A
C1279      C1280   1.404       .  A
C1280      C1281   1.400       .  A
C1280      H1291   1.084       .  S
C1281      C1282   1.404       .  A
C1281      H1292   1.083       .  S
C1282      C1283   1.405       .  A
C1283      C1284   1.407       .  A
C1283      H1293   1.084       .  S
C1284      C1285   1.405       .  A
C1285      H1294   1.084       .  S
C1286      C1287   1.400       .  A
C1286      H1295   1.085       .  S
C1287      C1288   1.403       .  A
C1288      H1296   1.085       .  S
C1297      C1298   1.399   1_556  A
C1297      C1302   1.404       .  A
C1297      H1313   1.084       .  S
C1298      C1299   1.403       .  A
C1298      H1314   1.084       .  S
C1299      C1309   1.404       .  A
C1299      C1300   1.412       .  A
C1300      C1306   1.410       .  A
C1300      C1301   1.413   1_554  A
C1301      C1303   1.412       .  A
C1301      C1302   1.410       .  A
C1302      C1310   1.402       .  A
C1303      C1312   1.405       .  A
C1303      C1304   1.404       .  A
C1304      C1305   1.399   1_556  A
C1304      H1315   1.084       .  S
C1305      C1306   1.404       .  A
C1305      H1316   1.084       .  S
C1306      C1307   1.402       .  A
C1307      C1308   1.409       .  A
C1307      H1317   1.084       .  S
C1308      C1309   1.407       .  A
C1309      H1318   1.084       .  S
C1310      C1311   1.408       .  A
C1310      H1319   1.084       .  S
C1311      C1312   1.409       .  A
C1312      H1320   1.084       .  S
C1321      C1322   1.402       .  A
C1321      C1326   1.405       .  A
C1321      H1337   1.083       .  S
C1322      C1323   1.405       .  A
C1322      H1338   1.084       .  S
C1323      C1333   1.407       .  A
C1323      C1324   1.412       .  A
C1324      C1330   1.411       .  A
C1324      C1325   1.411       .  A
C1325      C1327   1.412       .  A
C1325      C1326   1.413       .  A
C1326      C1334   1.406       .  A
C1327      C1336   1.399       .  A
C1327      C1328   1.402       .  A
C1328      C1329   1.396       .  A
C1328      H1339   1.084       .  S
C1329      C1330   1.402       .  A
C1329      H1340   1.084       .  S
C1330      C1331   1.399       .  A
C1331      C1332   1.404       .  A
C1331      H1341   1.084       .  S
C1332      C1333   1.408       .  A
C1333      H1342   1.084       .  S
C1334      C1335   1.406       .  A
C1334      H1343   1.084       .  S
C1335      C1336   1.401       .  A
C1336      H1344   1.085       .  S
C1345      C1346   1.400   1_655  A
C1345      C1350   1.404       .  A
C1345      H1361   1.084       .  S
C1346      C1347   1.404       .  A
C1346      H1362   1.083       .  S
C1347      C1357   1.405       .  A
C1347      C1348   1.413       .  A
C1348      C1354   1.411       .  A
C1348      C1349   1.412   1_455  A
C1349      C1351   1.412       .  A
C1349      C1350   1.411       .  A
C1350      C1358   1.404       .  A
C1351      C1360   1.403       .  A
C1351      C1352   1.403       .  A
C1352      C1353   1.398   1_655  A
C1352      H1363   1.084       .  S
C1353      C1354   1.403       .  A
C1353      H1364   1.084       .  S
C1354      C1355   1.401       .  A
C1355      C1356   1.406       .  A
C1355      H1365   1.084       .  S
C1356      C1357   1.406       .  A
C1357      H1366   1.084       .  S
C1358      C1359   1.407       .  A
C1358      H1367   1.084       .  S
C1359      C1360   1.405       .  A
C1360      H1368   1.084       .  S
C1369      C1370   1.397       .  A
C1369      C1374   1.402       .  A
C1369      H1385   1.083       .  S
C1370      C1371   1.403       .  A
C1370      H1386   1.084       .  S
C1371      C1381   1.400       .  A
C1371      C1372   1.411       .  A
C1372      C1378   1.412       .  A
C1372      C1373   1.411       .  A
C1373      C1375   1.412       .  A
C1373      C1374   1.412       .  A
C1374      C1382   1.400       .  A
C1375      C1384   1.404       .  A
C1375      C1376   1.404       .  A
C1376      C1377   1.400       .  A
C1376      H1387   1.084       .  S
C1377      C1378   1.404       .  A
C1377      H1388   1.083       .  S
C1378      C1379   1.405       .  A
C1379      C1380   1.406       .  A
C1379      H1389   1.084       .  S
C1380      C1381   1.405       .  A
C1381      H1390   1.084       .  S
C1382      C1383   1.402       .  A
C1382      H1391   1.085       .  S
C1383      C1384   1.404       .  A
C1384      H1392   1.085       .  S
C1393      C1394   1.398   1_455  A
C1393      C1398   1.403       .  A
C1393      H1409   1.084       .  S
C1394      C1395   1.403       .  A
C1394      H1410   1.084       .  S
C1395      C1405   1.402       .  A
C1395      C1396   1.411       .  A
C1396      C1402   1.411       .  A
C1396      C1397   1.412   1_655  A
C1397      C1399   1.411       .  A
C1397      C1398   1.411       .  A
C1398      C1406   1.402       .  A
C1399      C1408   1.403       .  A
C1399      C1400   1.404       .  A
C1400      C1401   1.399   1_455  A
C1400      H1411   1.083       .  S
C1401      C1402   1.404       .  A
C1401      H1412   1.084       .  S
C1402      C1403   1.404       .  A
C1403      C1404   1.408       .  A
C1403      H1413   1.084       .  S
C1404      C1405   1.407       .  A
C1405      H1414   1.084       .  S
C1406      C1407   1.407       .  A
C1406      H1415   1.084       .  S
C1407      C1408   1.408       .  A
C1408      H1416   1.084       .  S
C1417      C1418   1.398   1_554  A
C1417      C1422   1.403       .  A
C1417      H1433   1.084       .  S
C1418      C1419   1.403       .  A
C1418      H1434   1.084       .  S
C1419      C1429   1.401       .  A
C1419      C1420   1.411       .  A
C1420      C1426   1.411       .  A
C1420      C1421   1.410   1_556  A
C1421      C1423   1.411       .  A
C1421      C1422   1.412       .  A
C1422      C1430   1.402       .  A
C1423      C1432   1.400       .  A
C1423      C1424   1.403       .  A
C1424      C1425   1.398   1_554  A
C1424      H1435   1.083       .  S
C1425      C1426   1.403       .  A
C1425      H1436   1.084       .  S
C1426      C1427   1.401       .  A
C1427      C1428   1.407       .  A
C1427      H1437   1.084       .  S
C1428      C1429   1.407       .  A
C1429      H1438   1.084       .  S
C1430      C1431   1.407       .  A
C1430      H1439   1.084       .  S
C1431      C1432   1.407       .  A
C1432      H1440   1.084       .  S
C1441      C1442   1.401       .  A
C1441      C1446   1.405       .  A
C1441      H1457   1.083       .  S
C1442      C1443   1.405       .  A
C1442      H1458   1.084       .  S
C1443      C1453   1.405       .  A
C1443      C1444   1.412       .  A
C1444      C1450   1.412       .  A
C1444      C1445   1.411       .  A
C1445      C1447   1.412       .  A
C1445      C1446   1.412       .  A
C1446      C1454   1.406       .  A
C1447      C1456   1.399       .  A
C1447      C1448   1.402       .  A
C1448      C1449   1.396       .  A
C1448      H1459   1.084       .  S
C1449      C1450   1.402       .  A
C1449      H1460   1.083       .  S
C1450      C1451   1.399       .  A
C1451      C1452   1.403       .  A
C1451      H1461   1.084       .  S
C1452      C1453   1.407       .  A
C1453      H1462   1.084       .  S
C1454      C1455   1.406       .  A
C1454      H1463   1.084       .  S
C1455      C1456   1.402       .  A
C1456      H1464   1.085       .  S
C1465      C1466   1.399       .  A
C1465      C1470   1.403       .  A
C1465      H1481   1.084       .  S
C1466      C1467   1.403       .  A
C1466      H1482   1.083       .  S
C1467      C1477   1.402       .  A
C1467      C1468   1.412       .  A
C1468      C1474   1.412       .  A
C1468      C1469   1.410       .  A
C1469      C1471   1.412       .  A
C1469      C1470   1.412       .  A
C1470      C1478   1.402       .  A
C1471      C1480   1.401       .  A
C1471      C1472   1.403       .  A
C1472      C1473   1.398       .  A
C1472      H1483   1.084       .  S
C1473      C1474   1.403       .  A
C1473      H1484   1.083       .  S
C1474      C1475   1.400       .  A
C1475      C1476   1.403       .  A
C1475      H1485   1.084       .  S
C1476      C1477   1.404       .  A
C1477      H1486   1.084       .  S
C1478      C1479   1.404       .  A
C1478      H1487   1.085       .  S
C1479      C1480   1.402       .  A
C1480      H1488   1.085       .  S
C1489      C1490   1.399   1_556  A
C1489      C1494   1.404       .  A
C1489      H1505   1.084       .  S
C1490      C1491   1.403       .  A
C1490      H1506   1.084       .  S
C1491      C1501   1.404       .  A
C1491      C1492   1.413       .  A
C1492      C1498   1.409       .  A
C1492      C1493   1.409   1_554  A
C1493      C1495   1.412       .  A
C1493      C1494   1.410       .  A
C1494      C1502   1.400       .  A
C1495      C1504   1.401       .  A
C1495      C1496   1.402       .  A
C1496      C1497   1.396   1_556  A
C1496      H1507   1.084       .  S
C1497      C1498   1.403       .  A
C1497      H1508   1.084       .  S
C1498      C1499   1.397       .  A
C1499      C1500   1.406       .  A
C1499      H1509   1.084       .  S
C1500      C1501   1.407       .  A
C1501      H1510   1.084       .  S
C1502      C1503   1.409       .  A
C1502      H1511   1.084       .  S
C1503      C1504   1.405       .  A
C1504      H1512   1.084       .  S
C1513      C1514   1.400       .  A
C1513      C1518   1.404       .  A
C1513      H1529   1.083       .  S
C1514      C1515   1.404       .  A
C1514      H1530   1.084       .  S
C1515      C1525   1.404       .  A
C1515      C1516   1.412       .  A
C1516      C1522   1.412       .  A
C1516      C1517   1.411       .  A
C1517      C1519   1.412       .  A
C1517      C1518   1.412       .  A
C1518      C1526   1.405       .  A
C1519      C1528   1.401       .  A
C1519      C1520   1.402       .  A
C1520      C1521   1.398       .  A
C1520      H1531   1.084       .  S
C1521      C1522   1.403       .  A
C1521      H1532   1.083       .  S
C1522      C1523   1.401       .  A
C1523      C1524   1.404       .  A
C1523      H1533   1.084       .  S
C1524      C1525   1.407       .  A
C1525      H1534   1.084       .  S
C1526      C1527   1.405       .  A
C1526      H1535   1.084       .  S
C1527      C1528   1.402       .  A
C1528      H1536   1.085       .  S
C1537      C1538   1.401   1_565  A
C1537      C1542   1.405       .  A
C1537      H1553   1.084       .  S
C1538      C1539   1.404       .  A
C1538      H1554   1.084       .  S
C1539      C1549   1.407       .  A
C1539      C1540   1.412       .  A
C1540      C1546   1.410       .  A
C1540      C1541   1.412   1_545  A
C1541      C1543   1.412       .  A
C1541      C1542   1.410       .  A
C1542      C1550   1.404       .  A
C1543      C1552   1.401       .  A
C1543      C1544   1.402       .  A
C1544      C1545   1.396   1_565  A
C1544      H1555   1.084       .  S
C1545      C1546   1.403       .  A
C1545      H1556   1.084       .  S
C1546      C1547   1.399       .  A
C1547      C1548   1.407       .  A
C1547      H1557   1.084       .  S
C1548      C1549   1.409       .  A
C1549      H1558   1.084       .  S
C1550      C1551   1.409       .  A
C1550      H1559   1.084       .  S
C1551      C1552   1.405       .  A
C1552      H1560   1.084       .  S
C1561      C1562   1.399       .  A
C1561      C1566   1.403       .  A
C1561      H1577   1.083       .  S
C1562      C1563   1.403       .  A
C1562      H1578   1.083       .  S
C1563      C1573   1.401       .  A
C1563      C1564   1.411       .  A
C1564      C1570   1.413       .  A
C1564      C1565   1.411       .  A
C1565      C1567   1.411       .  A
C1565      C1566   1.413       .  A
C1566      C1574   1.404       .  A
C1567      C1576   1.402       .  A
C1567      C1568   1.404       .  A
C1568      C1569   1.399       .  A
C1568      H1579   1.084       .  S
C1569      C1570   1.403       .  A
C1569      H1580   1.083       .  S
C1570      C1571   1.404       .  A
C1571      C1572   1.404       .  A
C1571      H1581   1.084       .  S
C1572      C1573   1.404       .  A
C1573      H1582   1.085       .  S
C1574      C1575   1.404       .  A
C1574      H1583   1.084       .  S
C1575      C1576   1.406       .  A
C1576      H1584   1.084       .  S
C1585      C1586   1.398   1_565  A
C1585      C1590   1.403       .  A
C1585      H1601   1.084       .  S
C1586      C1587   1.403       .  A
C1586      H1602   1.084       .  S
C1587      C1597   1.400       .  A
C1587      C1588   1.411       .  A
C1588      C1594   1.411       .  A
C1588      C1589   1.410   1_545  A
C1589      C1591   1.411       .  A
C1589      C1590   1.411       .  A
C1590      C1598   1.401       .  A
C1591      C1600   1.401       .  A
C1591      C1592   1.403       .  A
C1592      C1593   1.398   1_565  A
C1592      H1603   1.084       .  S
C1593      C1594   1.403       .  A
C1593      H1604   1.084       .  S
C1594      C1595   1.401       .  A
C1595      C1596   1.407       .  A
C1595      H1605   1.084       .  S
C1596      C1597   1.407       .  A
C1597      H1606   1.084       .  S
C1598      C1599   1.407       .  A
C1598      H1607   1.084       .  S
C1599      C1600   1.406       .  A
C1600      H1608   1.084       .  S
C1609      C1610   1.401   1_554  A
C1609      C1614   1.405       .  A
C1609      H1625   1.084       .  S
C1610      C1611   1.404       .  A
C1610      H1626   1.084       .  S
C1611      C1621   1.407       .  A
C1611      C1612   1.413       .  A
C1612      C1618   1.410       .  A
C1612      C1613   1.411   1_556  A
C1613      C1615   1.412       .  A
C1613      C1614   1.410       .  A
C1614      C1622   1.404       .  A
C1615      C1624   1.400       .  A
C1615      C1616   1.402       .  A
C1616      C1617   1.396   1_554  A
C1616      H1627   1.084       .  S
C1617      C1618   1.402       .  A
C1617      H1628   1.084       .  S
C1618      C1619   1.398       .  A
C1619      C1620   1.406       .  A
C1619      H1629   1.084       .  S
C1620      C1621   1.408       .  A
C1621      H1630   1.084       .  S
C1622      C1623   1.409       .  A
C1622      H1631   1.084       .  S
C1623      C1624   1.405       .  A
C1624      H1632   1.084       .  S
C1633      C1634   1.398   1_545  A
C1633      C1638   1.403       .  A
C1633      H1649   1.084       .  S
C1634      C1635   1.403       .  A
C1634      H1650   1.084       .  S
C1635      C1645   1.403       .  A
C1635      C1636   1.412       .  A
C1636      C1642   1.411       .  A
C1636      C1637   1.411   1_565  A
C1637      C1639   1.413       .  A
C1637      C1638   1.411       .  A
C1638      C1646   1.401       .  A
C1639      C1648   1.404       .  A
C1639      C1640   1.403       .  A
C1640      C1641   1.399   1_545  A
C1640      H1651   1.083       .  S
C1641      C1642   1.403       .  A
C1641      H1652   1.084       .  S
C1642      C1643   1.401       .  A
C1643      C1644   1.405       .  A
C1643      H1653   1.084       .  S
C1644      C1645   1.405       .  A
C1645      H1654   1.084       .  S
C1646      C1647   1.406       .  A
C1646      H1655   1.085       .  S
C1647      C1648   1.405       .  A
C1648      H1656   1.084       .  S
C1657      C1658   1.399   1_655  A
C1657      C1662   1.403       .  A
C1657      H1673   1.084       .  S
C1658      C1659   1.403       .  A
C1658      H1674   1.083       .  S
C1659      C1669   1.402       .  A
C1659      C1660   1.410       .  A
C1660      C1666   1.412       .  A
C1660      C1661   1.412   1_455  A
C1661      C1663   1.410       .  A
C1661      C1662   1.412       .  A
C1662      C1670   1.404       .  A
C1663      C1672   1.402       .  A
C1663      C1664   1.404       .  A
C1664      C1665   1.399   1_655  A
C1664      H1675   1.084       .  S
C1665      C1666   1.404       .  A
C1665      H1676   1.084       .  S
C1666      C1667   1.404       .  A
C1667      C1668   1.408       .  A
C1667      H1677   1.084       .  S
C1668      C1669   1.408       .  A
C1669      H1678   1.084       .  S
C1670      C1671   1.408       .  A
C1670      H1679   1.084       .  S
C1671      C1672   1.408       .  A
C1672      H1680   1.084       .  S
C1681      C1682   1.399   1_455  A
C1681      C1686   1.403       .  A
C1681      H1697   1.084       .  S
C1682      C1683   1.403       .  A
C1682      H1698   1.083       .  S
C1683      C1693   1.404       .  A
C1683      C1684   1.412       .  A
C1684      C1690   1.410       .  A
C1684      C1685   1.410   1_655  A
C1685      C1687   1.412       .  A
C1685      C1686   1.411       .  A
C1686      C1694   1.401       .  A
C1687      C1696   1.400       .  A
C1687      C1688   1.403       .  A
C1688      C1689   1.397   1_455  A
C1688      H1699   1.084       .  S
C1689      C1690   1.403       .  A
C1689      H1700   1.084       .  S
C1690      C1691   1.398       .  A
C1691      C1692   1.407       .  A
C1691      H1701   1.084       .  S
C1692      C1693   1.406       .  A
C1693      H1702   1.084       .  S
C1694      C1695   1.407       .  A
C1694      H1703   1.084       .  S
C1695      C1696   1.406       .  A
C1696      H1704   1.084       .  S
C1705      C1706   1.399   1_565  A
C1705      C1710   1.404       .  A
C1705      H1721   1.084       .  S
C1706      C1707   1.404       .  A
C1706      H1722   1.084       .  S
C1707      C1717   1.402       .  A
C1707      C1708   1.411       .  A
C1708      C1714   1.411       .  A
C1708      C1709   1.411   1_545  A
C1709      C1711   1.411       .  A
C1709      C1710   1.411       .  A
C1710      C1718   1.403       .  A
C1711      C1720   1.400       .  A
C1711      C1712   1.403       .  A
C1712      C1713   1.397   1_565  A
C1712      H1723   1.084       .  S
C1713      C1714   1.403       .  A
C1713      H1724   1.084       .  S
C1714      C1715   1.401       .  A
C1715      C1716   1.406       .  A
C1715      H1725   1.084       .  S
C1716      C1717   1.408       .  A
C1717      H1726   1.084       .  S
C1718      C1719   1.408       .  A
C1718      H1727   1.084       .  S
C1719      C1720   1.407       .  A
C1720      H1728   1.084       .  S
C1729      C1730   1.398       .  A
C1729      C1734   1.403       .  A
C1729      H1745   1.083       .  S
C1730      C1731   1.403       .  A
C1730      H1746   1.084       .  S
C1731      C1741   1.401       .  A
C1731      C1732   1.412       .  A
C1732      C1738   1.413       .  A
C1732      C1733   1.411       .  A
C1733      C1735   1.411       .  A
C1733      C1734   1.412       .  A
C1734      C1742   1.402       .  A
C1735      C1744   1.402       .  A
C1735      C1736   1.404       .  A
C1736      C1737   1.399       .  A
C1736      H1747   1.084       .  S
C1737      C1738   1.403       .  A
C1737      H1748   1.084       .  S
C1738      C1739   1.404       .  A
C1739      C1740   1.403       .  A
C1739      H1749   1.084       .  S
C1740      C1741   1.402       .  A
C1741      H1750   1.085       .  S
C1742      C1743   1.405       .  A
C1742      H1751   1.084       .  S
C1743      C1744   1.406       .  A
C1744      H1752   1.084       .  S
C1753      C1754   1.398       .  A
C1753      C1758   1.403       .  A
C1753      H1769   1.083       .  S
C1754      C1755   1.403       .  A
C1754      H1770   1.084       .  S
C1755      C1765   1.402       .  A
C1755      C1756   1.412       .  A
C1756      C1762   1.412       .  A
C1756      C1757   1.410       .  A
C1757      C1759   1.412       .  A
C1757      C1758   1.411       .  A
C1758      C1766   1.401       .  A
C1759      C1768   1.403       .  A
C1759      C1760   1.403       .  A
C1760      C1761   1.399       .  A
C1760      H1771   1.083       .  S
C1761      C1762   1.403       .  A
C1761      H1772   1.084       .  S
C1762      C1763   1.401       .  A
C1763      C1764   1.404       .  A
C1763      H1773   1.085       .  S
C1764      C1765   1.403       .  A
C1765      H1774   1.084       .  S
C1766      C1767   1.404       .  A
C1766      H1775   1.084       .  S
C1767      C1768   1.404       .  A
C1768      H1776   1.084       .  S
C1777      C1778   1.398       .  A
C1777      C1782   1.402       .  A
C1777      H1793   1.083       .  S
C1778      C1779   1.403       .  A
C1778      H1794   1.084       .  S
C1779      C1789   1.401       .  A
C1779      C1780   1.411       .  A
C1780      C1786   1.413       .  A
C1780      C1781   1.411       .  A
C1781      C1783   1.412       .  A
C1781      C1782   1.413       .  A
C1782      C1790   1.402       .  A
C1783      C1792   1.403       .  A
C1783      C1784   1.404       .  A
C1784      C1785   1.400       .  A
C1784      H1795   1.084       .  S
C1785      C1786   1.404       .  A
C1785      H1796   1.083       .  S
C1786      C1787   1.405       .  A
C1787      C1788   1.406       .  A
C1787      H1797   1.084       .  S
C1788      C1789   1.406       .  A
C1789      H1798   1.084       .  S
C1790      C1791   1.401       .  A
C1790      H1799   1.084       .  S
C1791      C1792   1.404       .  A
C1792      H1800   1.085       .  S
C1801      C1802   1.398       .  A
C1801      C1806   1.403       .  A
C1801      H1817   1.084       .  S
C1802      C1803   1.403       .  A
C1802      H1818   1.084       .  S
C1803      C1813   1.401       .  A
C1803      C1804   1.411       .  A
C1804      C1810   1.411       .  A
C1804      C1805   1.411       .  A
C1805      C1807   1.411       .  A
C1805      C1806   1.411       .  A
C1806      C1814   1.401       .  A
C1807      C1816   1.402       .  A
C1807      C1808   1.403       .  A
C1808      C1809   1.399       .  A
C1808      H1819   1.083       .  S
C1809      C1810   1.403       .  A
C1809      H1820   1.084       .  S
C1810      C1811   1.403       .  A
C1811      C1812   1.407       .  A
C1811      H1821   1.084       .  S
C1812      C1813   1.407       .  A
C1813      H1822   1.084       .  S
C1814      C1815   1.407       .  A
C1814      H1823   1.084       .  S
C1815      C1816   1.407       .  A
C1816      H1824   1.084       .  S
C1825      C1826   1.397       .  A
C1825      C1830   1.402       .  A
C1825      H1841   1.084       .  S
C1826      C1827   1.403       .  A
C1826      H1842   1.084       .  S
C1827      C1837   1.400       .  A
C1827      C1828   1.411       .  A
C1828      C1834   1.412       .  A
C1828      C1829   1.410       .  A
C1829      C1831   1.412       .  A
C1829      C1830   1.413       .  A
C1830      C1838   1.400       .  A
C1831      C1840   1.402       .  A
C1831      C1832   1.403       .  A
C1832      C1833   1.399       .  A
C1832      H1843   1.084       .  S
C1833      C1834   1.404       .  A
C1833      H1844   1.083       .  S
C1834      C1835   1.403       .  A
C1835      C1836   1.406       .  A
C1835      H1845   1.084       .  S
C1836      C1837   1.406       .  A
C1837      H1846   1.084       .  S
C1838      C1839   1.402       .  A
C1838      H1847   1.085       .  S
C1839      C1840   1.402       .  A
C1840      H1848   1.085       .  S
C1849      C1850   1.398       .  A
C1849      C1854   1.403       .  A
C1849      H1865   1.083       .  S
C1850      C1851   1.403       .  A
C1850      H1866   1.084       .  S
C1851      C1861   1.401       .  A
C1851      C1852   1.411       .  A
C1852      C1858   1.413       .  A
C1852      C1853   1.411       .  A
C1853      C1855   1.411       .  A
C1853      C1854   1.413       .  A
C1854      C1862   1.402       .  A
C1855      C1864   1.402       .  A
C1855      C1856   1.403       .  A
C1856      C1857   1.399       .  A
C1856      H1867   1.084       .  S
C1857      C1858   1.404       .  A
C1857      H1868   1.084       .  S
C1858      C1859   1.404       .  A
C1859      C1860   1.405       .  A
C1859      H1869   1.084       .  S
C1860      C1861   1.405       .  A
C1861      H1870   1.084       .  S
C1862      C1863   1.403       .  A
C1862      H1871   1.084       .  S
C1863      C1864   1.404       .  A
C1864      H1872   1.085       .  S
C1873      C1874   1.399       .  A
C1873      C1878   1.404       .  A
C1873      H1889   1.084       .  S
C1874      C1875   1.404       .  A
C1874      H1890   1.084       .  S
C1875      C1885   1.402       .  A
C1875      C1876   1.410       .  A
C1876      C1882   1.412       .  A
C1876      C1877   1.412       .  A
C1877      C1879   1.410       .  A
C1877      C1878   1.412       .  A
C1878      C1886   1.406       .  A
C1879      C1888   1.401       .  A
C1879      C1880   1.403       .  A
C1880      C1881   1.398       .  A
C1880      H1891   1.084       .  S
C1881      C1882   1.403       .  A
C1881      H1892   1.084       .  S
C1882      C1883   1.403       .  A
C1883      C1884   1.407       .  A
C1883      H1893   1.084       .  S
C1884      C1885   1.408       .  A
C1885      H1894   1.084       .  S
C1886      C1887   1.408       .  A
C1886      H1895   1.084       .  S
C1887      C1888   1.408       .  A
C1888      H1896   1.084       .  S
C1897      C1898   1.399       .  A
C1897      C1902   1.404       .  A
C1897      H1913   1.083       .  S
C1898      C1899   1.404       .  A
C1898      H1914   1.084       .  S
C1899      C1909   1.403       .  A
C1899      C1900   1.412       .  A
C1900      C1906   1.412       .  A
C1900      C1901   1.411       .  A
C1901      C1903   1.412       .  A
C1901      C1902   1.412       .  A
C1902      C1910   1.403       .  A
C1903      C1912   1.402       .  A
C1903      C1904   1.403       .  A
C1904      C1905   1.398       .  A
C1904      H1915   1.083       .  S
C1905      C1906   1.403       .  A
C1905      H1916   1.083       .  S
C1906      C1907   1.402       .  A
C1907      C1908   1.404       .  A
C1907      H1917   1.084       .  S
C1908      C1909   1.405       .  A
C1909      H1918   1.085       .  S
C1910      C1911   1.405       .  A
C1910      H1919   1.084       .  S
C1911      C1912   1.403       .  A
C1912      H1920   1.084       .  S
C1921      C1922   1.401       .  A
C1921      C1926   1.404       .  A
C1921      H1937   1.083       .  S
C1922      C1923   1.404       .  A
C1922      H1938   1.083       .  S
C1923      C1933   1.407       .  A
C1923      C1924   1.412       .  A
C1924      C1930   1.411       .  A
C1924      C1925   1.413       .  A
C1925      C1927   1.411       .  A
C1925      C1926   1.412       .  A
C1926      C1934   1.407       .  A
C1927      C1936   1.401       .  A
C1927      C1928   1.403       .  A
C1928      C1929   1.398       .  A
C1928      H1939   1.084       .  S
C1929      C1930   1.403       .  A
C1929      H1940   1.084       .  S
C1930      C1931   1.401       .  A
C1931      C1932   1.405       .  A
C1931      H1941   1.084       .  S
C1932      C1933   1.408       .  A
C1933      H1942   1.084       .  S
C1934      C1935   1.407       .  A
C1934      H1943   1.084       .  S
C1935      C1936   1.405       .  A
C1936      H1944   1.085       .  S
C1945      C1946   1.399       .  A
C1945      C1950   1.404       .  A
C1945      H1961   1.084       .  S
C1946      C1947   1.404       .  A
C1946      H1962   1.084       .  S
C1947      C1957   1.401       .  A
C1947      C1948   1.410       .  A
C1948      C1954   1.412       .  A
C1948      C1949   1.412       .  A
C1949      C1951   1.411       .  A
C1949      C1950   1.412       .  A
C1950      C1958   1.403       .  A
C1951      C1960   1.402       .  A
C1951      C1952   1.403       .  A
C1952      C1953   1.399       .  A
C1952      H1963   1.084       .  S
C1953      C1954   1.403       .  A
C1953      H1964   1.084       .  S
C1954      C1955   1.404       .  A
C1955      C1956   1.407       .  A
C1955      H1965   1.084       .  S
C1956      C1957   1.409       .  A
C1957      H1966   1.084       .  S
C1958      C1959   1.408       .  A
C1958      H1967   1.084       .  S
C1959      C1960   1.407       .  A
C1960      H1968   1.084       .  S
C1969      C1970   1.399       .  A
C1969      C1974   1.403       .  A
C1969      H1985   1.083       .  S
C1970      C1971   1.403       .  A
C1970      H1986   1.083       .  S
C1971      C1981   1.403       .  A
C1971      C1972   1.412       .  A
C1972      C1978   1.411       .  A
C1972      C1973   1.412       .  A
C1973      C1975   1.413       .  A
C1973      C1974   1.412       .  A
C1974      C1982   1.402       .  A
C1975      C1984   1.404       .  A
C1975      C1976   1.403       .  A
C1976      C1977   1.400       .  A
C1976      H1987   1.083       .  S
C1977      C1978   1.404       .  A
C1977      H1988   1.084       .  S
C1978      C1979   1.403       .  A
C1979      C1980   1.407       .  A
C1979      H1989   1.084       .  S
C1980      C1981   1.406       .  A
C1981      H1990   1.084       .  S
C1982      C1983   1.402       .  A
C1982      H1991   1.084       .  S
C1983      C1984   1.403       .  A
C1984      H1992   1.085       .  S
C1993      C1994   1.399       .  A
C1993      C1998   1.404       .  A
C1993      H2009   1.084       .  S
C1994      C1995   1.403       .  A
C1994      H2010   1.083       .  S
C1995      C2005   1.404       .  A
C1995      C1996   1.412       .  A
C1996      C2002   1.411       .  A
C1996      C1997   1.413       .  A
C1997      C1999   1.413       .  A
C1997      C1998   1.411       .  A
C1998      C2006   1.403       .  A
C1999      C2008   1.405       .  A
C1999      C2000   1.404       .  A
C2000      C2001   1.400       .  A
C2000      H2011   1.083       .  S
C2001      C2002   1.404       .  A
C2001      H2012   1.084       .  S
C2002      C2003   1.403       .  A
C2003      C2004   1.406       .  A
C2003      H2013   1.084       .  S
C2004      C2005   1.406       .  A
C2005      H2014   1.084       .  S
C2006      C2007   1.405       .  A
C2006      H2015   1.085       .  S
C2007      C2008   1.405       .  A
C2008      H2016   1.084       .  S
C2017      C2018   1.398       .  A
C2017      C2022   1.403       .  A
C2017      H2033   1.084       .  S
C2018      C2019   1.403       .  A
C2018      H2034   1.083       .  S
C2019      C2029   1.401       .  A
C2019      C2020   1.411       .  A
C2020      C2026   1.412       .  A
C2020      C2021   1.409       .  A
C2021      C2023   1.412       .  A
C2021      C2022   1.413       .  A
C2022      C2030   1.401       .  A
C2023      C2032   1.400       .  A
C2023      C2024   1.403       .  A
C2024      C2025   1.398       .  A
C2024      H2035   1.084       .  S
C2025      C2026   1.403       .  A
C2025      H2036   1.083       .  S
C2026      C2027   1.401       .  A
C2027      C2028   1.405       .  A
C2027      H2037   1.084       .  S
C2028      C2029   1.406       .  A
C2029      H2038   1.084       .  S
C2030      C2031   1.402       .  A
C2030      H2039   1.085       .  S
C2031      C2032   1.402       .  A
C2032      H2040   1.085       .  S
C2041      C2042   1.399       .  A
C2041      C2046   1.404       .  A
C2041      H2057   1.084       .  S
C2042      C2043   1.403       .  A
C2042      H2058   1.084       .  S
C2043      C2053   1.404       .  A
C2043      C2044   1.412       .  A
C2044      C2050   1.410       .  A
C2044      C2045   1.412       .  A
C2045      C2047   1.412       .  A
C2045      C2046   1.410       .  A
C2046      C2054   1.401       .  A
C2047      C2056   1.404       .  A
C2047      C2048   1.403       .  A
C2048      C2049   1.399       .  A
C2048      H2059   1.084       .  S
C2049      C2050   1.404       .  A
C2049      H2060   1.084       .  S
C2050      C2051   1.402       .  A
C2051      C2052   1.408       .  A
C2051      H2061   1.084       .  S
C2052      C2053   1.407       .  A
C2053      H2062   1.084       .  S
C2054      C2055   1.408       .  A
C2054      H2063   1.084       .  S
C2055      C2056   1.407       .  A
C2056      H2064   1.084       .  S
C2065      C2066   1.399       .  A
C2065      C2070   1.403       .  A
C2065      H2081   1.083       .  S
C2066      C2067   1.403       .  A
C2066      H2082   1.084       .  S
C2067      C2077   1.403       .  A
C2067      C2068   1.412       .  A
C2068      C2074   1.412       .  A
C2068      C2069   1.410       .  A
C2069      C2071   1.412       .  A
C2069      C2070   1.412       .  A
C2070      C2078   1.402       .  A
C2071      C2080   1.402       .  A
C2071      C2072   1.403       .  A
C2072      C2073   1.398       .  A
C2072      H2083   1.083       .  S
C2073      C2074   1.403       .  A
C2073      H2084   1.084       .  S
C2074      C2075   1.401       .  A
C2075      C2076   1.404       .  A
C2075      H2085   1.084       .  S
C2076      C2077   1.405       .  A
C2077      H2086   1.084       .  S
C2078      C2079   1.404       .  A
C2078      H2087   1.084       .  S
C2079      C2080   1.404       .  A
C2080      H2088   1.084       .  S
C2089      C2090   1.398       .  A
C2089      C2094   1.403       .  A
C2089      H2105   1.084       .  S
C2090      C2091   1.403       .  A
C2090      H2106   1.083       .  S
C2091      C2101   1.402       .  A
C2091      C2092   1.412       .  A
C2092      C2098   1.412       .  A
C2092      C2093   1.413       .  A
C2093      C2095   1.412       .  A
C2093      C2094   1.411       .  A
C2094      C2102   1.402       .  A
C2095      C2104   1.407       .  A
C2095      C2096   1.405       .  A
C2096      C2097   1.401       .  A
C2096      H2107   1.083       .  S
C2097      C2098   1.404       .  A
C2097      H2108   1.084       .  S
C2098      C2099   1.406       .  A
C2099      C2100   1.406       .  A
C2099      H2109   1.084       .  S
C2100      C2101   1.403       .  A
C2101      H2110   1.084       .  S
C2102      C2103   1.406       .  A
C2102      H2111   1.084       .  S
C2103      C2104   1.408       .  A
C2104      H2112   1.084       .  S
C2113      C2114   1.396       .  A
C2113      C2118   1.403       .  A
C2113      H2129   1.084       .  S
C2114      C2115   1.402       .  A
C2114      H2130   1.084       .  S
C2115      C2125   1.399       .  A
C2115      C2116   1.410       .  A
C2116      C2122   1.412       .  A
C2116      C2117   1.412       .  A
C2117      C2119   1.411       .  A
C2117      C2118   1.411       .  A
C2118      C2126   1.399       .  A
C2119      C2128   1.407       .  A
C2119      C2120   1.405       .  A
C2120      C2121   1.402       .  A
C2120      H2131   1.083       .  S
C2121      C2122   1.405       .  A
C2121      H2132   1.083       .  S
C2122      C2123   1.407       .  A
C2123      C2124   1.409       .  A
C2123      H2133   1.084       .  S
C2124      C2125   1.407       .  A
C2125      H2134   1.084       .  S
C2126      C2127   1.407       .  A
C2126      H2135   1.084       .  S
C2127      C2128   1.410       .  A
C2128      H2136   1.084       .  S
C2137      C2138   1.397       .  A
C2137      C2142   1.402       .  A
C2137      H2153   1.084       .  S
C2138      C2139   1.402       .  A
C2138      H2154   1.083       .  S
C2139      C2149   1.400       .  A
C2139      C2140   1.413       .  A
C2140      C2146   1.411       .  A
C2140      C2141   1.409       .  A
C2141      C2143   1.413       .  A
C2141      C2142   1.412       .  A
C2142      C2150   1.398       .  A
C2143      C2152   1.403       .  A
C2143      C2144   1.403       .  A
C2144      C2145   1.399       .  A
C2144      H2155   1.084       .  S
C2145      C2146   1.404       .  A
C2145      H2156   1.084       .  S
C2146      C2147   1.401       .  A
C2147      C2148   1.405       .  A
C2147      H2157   1.085       .  S
C2148      C2149   1.402       .  A
C2149      H2158   1.084       .  S
C2150      C2151   1.401       .  A
C2150      H2159   1.085       .  S
C2151      C2152   1.404       .  A
C2152      H2160   1.084       .  S
C2161      C2162   1.398       .  A
C2161      C2166   1.403       .  A
C2161      H2177   1.084       .  S
C2162      C2163   1.403       .  A
C2162      H2178   1.084       .  S
C2163      C2173   1.402       .  A
C2163      C2164   1.411       .  A
C2164      C2170   1.411       .  A
C2164      C2165   1.413       .  A
C2165      C2167   1.411       .  A
C2165      C2166   1.411       .  A
C2166      C2174   1.402       .  A
C2167      C2176   1.405       .  A
C2167      C2168   1.404       .  A
C2168      C2169   1.400       .  A
C2168      H2179   1.084       .  S
C2169      C2170   1.404       .  A
C2169      H2180   1.084       .  S
C2170      C2171   1.405       .  A
C2171      C2172   1.409       .  A
C2171      H2181   1.084       .  S
C2172      C2173   1.407       .  A
C2173      H2182   1.084       .  S
C2174      C2175   1.408       .  A
C2174      H2183   1.084       .  S
C2175      C2176   1.409       .  A
C2176      H2184   1.084       .  S
C2185      C2186   1.397       .  A
C2185      C2190   1.403       .  A
C2185      H2201   1.084       .  S
C2186      C2187   1.402       .  A
C2186      H2202   1.084       .  S
C2187      C2197   1.401       .  A
C2187      C2188   1.412       .  A
C2188      C2194   1.411       .  A
C2188      C2189   1.411       .  A
C2189      C2191   1.413       .  A
C2189      C2190   1.410       .  A
C2190      C2198   1.398       .  A
C2191      C2200   1.405       .  A
C2191      C2192   1.404       .  A
C2192      C2193   1.400       .  A
C2192      H2203   1.084       .  S
C2193      C2194   1.404       .  A
C2193      H2204   1.084       .  S
C2194      C2195   1.403       .  A
C2195      C2196   1.408       .  A
C2195      H2205   1.084       .  S
C2196      C2197   1.405       .  A
C2197      H2206   1.084       .  S
C2198      C2199   1.406       .  A
C2198      H2207   1.084       .  S
C2199      C2200   1.407       .  A
C2200      H2208   1.084       .  S
C2209      C2210   1.398       .  A
C2209      C2214   1.403       .  A
C2209      H2225   1.083       .  S
C2210      C2211   1.403       .  A
C2210      H2226   1.083       .  S
C2211      C2221   1.400       .  A
C2211      C2212   1.412       .  A
C2212      C2218   1.412       .  A
C2212      C2213   1.411       .  A
C2213      C2215   1.412       .  A
C2213      C2214   1.412       .  A
C2214      C2222   1.401       .  A
C2215      C2224   1.404       .  A
C2215      C2216   1.404       .  A
C2216      C2217   1.400       .  A
C2216      H2227   1.084       .  S
C2217      C2218   1.404       .  A
C2217      H2228   1.083       .  S
C2218      C2219   1.404       .  A
C2219      C2220   1.405       .  A
C2219      H2229   1.084       .  S
C2220      C2221   1.403       .  A
C2221      H2230   1.084       .  S
C2222      C2223   1.404       .  A
C2222      H2231   1.085       .  S
C2223      C2224   1.405       .  A
C2224      H2232   1.084       .  S
C2233      C2234   1.400       .  A
C2233      C2238   1.404       .  A
C2233      H2249   1.083       .  S
C2234      C2235   1.404       .  A
C2234      H2250   1.084       .  S
C2235      C2245   1.403       .  A
C2235      C2236   1.411       .  A
C2236      C2242   1.412       .  A
C2236      C2237   1.411       .  A
C2237      C2239   1.412       .  A
C2237      C2238   1.412       .  A
C2238      C2246   1.404       .  A
C2239      C2248   1.402       .  A
C2239      C2240   1.403       .  A
C2240      C2241   1.398       .  A
C2240      H2251   1.083       .  S
C2241      C2242   1.403       .  A
C2241      H2252   1.084       .  S
C2242      C2243   1.402       .  A
C2243      C2244   1.404       .  A
C2243      H2253   1.084       .  S
C2244      C2245   1.406       .  A
C2245      H2254   1.084       .  S
C2246      C2247   1.404       .  A
C2246      H2255   1.084       .  S
C2247      C2248   1.402       .  A
C2248      H2256   1.085       .  S
C2257      C2258   1.399       .  A
C2257      C2262   1.403       .  A
C2257      H2273   1.083       .  S
C2258      C2259   1.403       .  A
C2258      H2274   1.084       .  S
C2259      C2269   1.402       .  A
C2259      C2260   1.412       .  A
C2260      C2266   1.413       .  A
C2260      C2261   1.411       .  A
C2261      C2263   1.411       .  A
C2261      C2262   1.412       .  A
C2262      C2270   1.403       .  A
C2263      C2272   1.402       .  A
C2263      C2264   1.404       .  A
C2264      C2265   1.399       .  A
C2264      H2275   1.083       .  S
C2265      C2266   1.403       .  A
C2265      H2276   1.084       .  S
C2266      C2267   1.403       .  A
C2267      C2268   1.402       .  A
C2267      H2277   1.085       .  S
C2268      C2269   1.402       .  A
C2269      H2278   1.085       .  S
C2270      C2271   1.406       .  A
C2270      H2279   1.084       .  S
C2271      C2272   1.407       .  A
C2272      H2280   1.084       .  S
C2281      C2282   1.398       .  A
C2281      C2286   1.403       .  A
C2281      H2297   1.084       .  S
C2282      C2283   1.403       .  A
C2282      H2298   1.084       .  S
C2283      C2293   1.401       .  A
C2283      C2284   1.411       .  A
C2284      C2290   1.411       .  A
C2284      C2285   1.411       .  A
C2285      C2287   1.411       .  A
C2285      C2286   1.411       .  A
C2286      C2294   1.402       .  A
C2287      C2296   1.401       .  A
C2287      C2288   1.403       .  A
C2288      C2289   1.398       .  A
C2288      H2299   1.084       .  S
C2289      C2290   1.403       .  A
C2289      H2300   1.084       .  S
C2290      C2291   1.402       .  A
C2291      C2292   1.407       .  A
C2291      H2301   1.084       .  S
C2292      C2293   1.407       .  A
C2293      H2302   1.084       .  S
C2294      C2295   1.407       .  A
C2294      H2303   1.084       .  S
C2295      C2296   1.408       .  A
C2296      H2304   1.084       .  S
C2305      C2306   1.398       .  A
C2305      C2310   1.403       .  A
C2305      H2321   1.084       .  S
C2306      C2307   1.403       .  A
C2306      H2322   1.083       .  S
C2307      C2317   1.401       .  A
C2307      C2308   1.411       .  A
C2308      C2314   1.412       .  A
C2308      C2309   1.409       .  A
C2309      C2311   1.412       .  A
C2309      C2310   1.413       .  A
C2310      C2318   1.402       .  A
C2311      C2320   1.400       .  A
C2311      C2312   1.403       .  A
C2312      C2313   1.398       .  A
C2312      H2323   1.084       .  S
C2313      C2314   1.403       .  A
C2313      H2324   1.084       .  S
C2314      C2315   1.401       .  A
C2315      C2316   1.404       .  A
C2315      H2325   1.084       .  S
C2316      C2317   1.405       .  A
C2317      H2326   1.084       .  S
C2318      C2319   1.402       .  A
C2318      H2327   1.084       .  S
C2319      C2320   1.403       .  A
C2320      H2328   1.085       .  S
C2329      C2330   1.399       .  A
C2329      C2334   1.403       .  A
C2329      H2345   1.083       .  S
C2330      C2331   1.403       .  A
C2330      H2346   1.084       .  S
C2331      C2341   1.403       .  A
C2331      C2332   1.412       .  A
C2332      C2338   1.412       .  A
C2332      C2333   1.411       .  A
C2333      C2335   1.411       .  A
C2333      C2334   1.412       .  A
C2334      C2342   1.404       .  A
C2335      C2344   1.402       .  A
C2335      C2336   1.404       .  A
C2336      C2337   1.399       .  A
C2336      H2347   1.083       .  S
C2337      C2338   1.403       .  A
C2337      H2348   1.084       .  S
C2338      C2339   1.402       .  A
C2339      C2340   1.404       .  A
C2339      H2349   1.085       .  S
C2340      C2341   1.404       .  A
C2341      H2350   1.085       .  S
C2342      C2343   1.405       .  A
C2342      H2351   1.084       .  S
C2343      C2344   1.406       .  A
C2344      H2352   1.084       .  S
C2353      C2354   1.397       .  A
C2353      C2358   1.403       .  A
C2353      H2369   1.084       .  S
C2354      C2355   1.402       .  A
C2354      H2370   1.084       .  S
C2355      C2365   1.400       .  A
C2355      C2356   1.412       .  A
C2356      C2362   1.410       .  A
C2356      C2357   1.410       .  A
C2357      C2359   1.412       .  A
C2357      C2358   1.410       .  A
C2358      C2366   1.398       .  A
C2359      C2368   1.403       .  A
C2359      C2360   1.403       .  A
C2360      C2361   1.399       .  A
C2360      H2371   1.084       .  S
C2361      C2362   1.403       .  A
C2361      H2372   1.084       .  S
C2362      C2363   1.401       .  A
C2363      C2364   1.407       .  A
C2363      H2373   1.084       .  S
C2364      C2365   1.406       .  A
C2365      H2374   1.084       .  S
C2366      C2367   1.407       .  A
C2366      H2375   1.084       .  S
C2367      C2368   1.407       .  A
C2368      H2376   1.084       .  S
C2377      C2378   1.399       .  A
C2377      C2382   1.404       .  A
C2377      H2393   1.084       .  S
C2378      C2379   1.403       .  A
C2378      H2394   1.083       .  S
C2379      C2389   1.403       .  A
C2379      C2380   1.413       .  A
C2380      C2386   1.412       .  A
C2380      C2381   1.411       .  A
C2381      C2383   1.411       .  A
C2381      C2382   1.411       .  A
C2382      C2390   1.403       .  A
C2383      C2392   1.402       .  A
C2383      C2384   1.404       .  A
C2384      C2385   1.398       .  A
C2384      H2395   1.084       .  S
C2385      C2386   1.403       .  A
C2385      H2396   1.083       .  S
C2386      C2387   1.402       .  A
C2387      C2388   1.402       .  A
C2387      H2397   1.085       .  S
C2388      C2389   1.402       .  A
C2389      H2398   1.084       .  S
C2390      C2391   1.407       .  A
C2390      H2399   1.084       .  S
C2391      C2392   1.407       .  A
C2392      H2400   1.084       .  S
C2401      C2402   1.400       .  A
C2401      C2406   1.404       .  A
C2401      H2417   1.084       .  S
C2402      C2403   1.404       .  A
C2402      H2418   1.083       .  S
C2403      C2413   1.406       .  A
C2403      C2404   1.412       .  A
C2404      C2410   1.411       .  A
C2404      C2405   1.414       .  A
C2405      C2407   1.411       .  A
C2405      C2406   1.411       .  A
C2406      C2414   1.405       .  A
C2407      C2416   1.404       .  A
C2407      C2408   1.404       .  A
C2408      C2409   1.399       .  A
C2408      H2419   1.084       .  S
C2409      C2410   1.404       .  A
C2409      H2420   1.084       .  S
C2410      C2411   1.403       .  A
C2411      C2412   1.409       .  A
C2411      H2421   1.084       .  S
C2412      C2413   1.409       .  A
C2413      H2422   1.084       .  S
C2414      C2415   1.409       .  A
C2414      H2423   1.084       .  S
C2415      C2416   1.408       .  A
C2416      H2424   1.084       .  S
C2425      C2426   1.397       .  A
C2425      C2430   1.403       .  A
C2425      H2441   1.084       .  S
C2426      C2427   1.403       .  A
C2426      H2442   1.084       .  S
C2427      C2437   1.401       .  A
C2427      C2428   1.411       .  A
C2428      C2434   1.411       .  A
C2428      C2429   1.410       .  A
C2429      C2431   1.411       .  A
C2429      C2430   1.411       .  A
C2430      C2438   1.400       .  A
C2431      C2440   1.402       .  A
C2431      C2432   1.403       .  A
C2432      C2433   1.398       .  A
C2432      H2443   1.083       .  S
C2433      C2434   1.403       .  A
C2433      H2444   1.084       .  S
C2434      C2435   1.401       .  A
C2435      C2436   1.407       .  A
C2435      H2445   1.084       .  S
C2436      C2437   1.406       .  A
C2437      H2446   1.084       .  S
C2438      C2439   1.406       .  A
C2438      H2447   1.084       .  S
C2439      C2440   1.407       .  A
C2440      H2448   1.084       .  S
C2449      C2450   1.397       .  A
C2449      C2454   1.402       .  A
C2449      H2465   1.084       .  S
C2450      C2451   1.403       .  A
C2450      H2466   1.083       .  S
C2451      C2461   1.400       .  A
C2451      C2452   1.412       .  A
C2452      C2458   1.412       .  A
C2452      C2453   1.410       .  A
C2453      C2455   1.412       .  A
C2453      C2454   1.412       .  A
C2454      C2462   1.399       .  A
C2455      C2464   1.403       .  A
C2455      C2456   1.404       .  A
C2456      C2457   1.400       .  A
C2456      H2467   1.084       .  S
C2457      C2458   1.404       .  A
C2457      H2468   1.084       .  S
C2458      C2459   1.404       .  A
C2459      C2460   1.405       .  A
C2459      H2469   1.084       .  S
C2460      C2461   1.403       .  A
C2461      H2470   1.085       .  S
C2462      C2463   1.402       .  A
C2462      H2471   1.085       .  S
C2463      C2464   1.405       .  A
C2464      H2472   1.084       .  S
C2473      C2474   1.398       .  A
C2473      C2478   1.403       .  A
C2473      H2489   1.084       .  S
C2474      C2475   1.403       .  A
C2474      H2490   1.083       .  S
C2475      C2485   1.400       .  A
C2475      C2476   1.412       .  A
C2476      C2482   1.413       .  A
C2476      C2477   1.411       .  A
C2477      C2479   1.412       .  A
C2477      C2478   1.412       .  A
C2478      C2486   1.402       .  A
C2479      C2488   1.405       .  A
C2479      C2480   1.404       .  A
C2480      C2481   1.401       .  A
C2480      H2491   1.083       .  S
C2481      C2482   1.404       .  A
C2481      H2492   1.084       .  S
C2482      C2483   1.405       .  A
C2483      C2484   1.405       .  A
C2483      H2493   1.084       .  S
C2484      C2485   1.402       .  A
C2485      H2494   1.085       .  S
C2486      C2487   1.405       .  A
C2486      H2495   1.084       .  S
C2487      C2488   1.407       .  A
C2488      H2496   1.084       .  S
C2497      C2498   1.398       .  A
C2497      C2502   1.403       .  A
C2497      H2513   1.084       .  S
C2498      C2499   1.403       .  A
C2498      H2514   1.084       .  S
C2499      C2509   1.401       .  A
C2499      C2500   1.411       .  A
C2500      C2506   1.412       .  A
C2500      C2501   1.411       .  A
C2501      C2503   1.412       .  A
C2501      C2502   1.413       .  A
C2502      C2510   1.402       .  A
C2503      C2512   1.403       .  A
C2503      C2504   1.404       .  A
C2504      C2505   1.400       .  A
C2504      H2515   1.083       .  S
C2505      C2506   1.404       .  A
C2505      H2516   1.084       .  S
C2506      C2507   1.405       .  A
C2507      C2508   1.406       .  A
C2507      H2517   1.084       .  S
C2508      C2509   1.405       .  A
C2509      H2518   1.084       .  S
C2510      C2511   1.404       .  A
C2510      H2519   1.085       .  S
C2511      C2512   1.404       .  A
C2512      H2520   1.084       .  S
C2521      C2522   1.397       .  A
C2521      C2526   1.403       .  A
C2521      H2537   1.084       .  S
C2522      C2523   1.403       .  A
C2522      H2538   1.084       .  S
C2523      C2533   1.401       .  A
C2523      C2524   1.412       .  A
C2524      C2530   1.411       .  A
C2524      C2525   1.410       .  A
C2525      C2527   1.412       .  A
C2525      C2526   1.411       .  A
C2526      C2534   1.400       .  A
C2527      C2536   1.402       .  A
C2527      C2528   1.403       .  A
C2528      C2529   1.398       .  A
C2528      H2539   1.084       .  S
C2529      C2530   1.403       .  A
C2529      H2540   1.084       .  S
C2530      C2531   1.401       .  A
C2531      C2532   1.407       .  A
C2531      H2541   1.084       .  S
C2532      C2533   1.405       .  A
C2533      H2542   1.084       .  S
C2534      C2535   1.406       .  A
C2534      H2543   1.084       .  S
C2535      C2536   1.406       .  A
C2536      H2544   1.084       .  S
C2545      C2546   1.397       .  A
C2545      C2550   1.403       .  A
C2545      H2561   1.084       .  S
C2546      C2547   1.402       .  A
C2546      H2562   1.083       .  S
C2547      C2557   1.400       .  A
C2547      C2548   1.413       .  A
C2548      C2554   1.412       .  A
C2548      C2549   1.410       .  A
C2549      C2551   1.413       .  A
C2549      C2550   1.411       .  A
C2550      C2558   1.398       .  A
C2551      C2560   1.404       .  A
C2551      C2552   1.404       .  A
C2552      C2553   1.400       .  A
C2552      H2563   1.083       .  S
C2553      C2554   1.404       .  A
C2553      H2564   1.083       .  S
C2554      C2555   1.403       .  A
C2555      C2556   1.405       .  A
C2555      H2565   1.084       .  S
C2556      C2557   1.403       .  A
C2557      H2566   1.084       .  S
C2558      C2559   1.404       .  A
C2558      H2567   1.085       .  S
C2559      C2560   1.405       .  A
C2560      H2568   1.084       .  S
C2569      C2570   1.400       .  A
C2569      C2574   1.404       .  A
C2569      H2585   1.083       .  S
C2570      C2571   1.404       .  A
C2570      H2586   1.083       .  S
C2571      C2581   1.403       .  A
C2571      C2572   1.412       .  A
C2572      C2578   1.413       .  A
C2572      C2573   1.412       .  A
C2573      C2575   1.411       .  A
C2573      C2574   1.413       .  A
C2574      C2582   1.405       .  A
C2575      C2584   1.401       .  A
C2575      C2576   1.404       .  A
C2576      C2577   1.399       .  A
C2576      H2587   1.084       .  S
C2577      C2578   1.403       .  A
C2577      H2588   1.083       .  S
C2578      C2579   1.403       .  A
C2579      C2580   1.404       .  A
C2579      H2589   1.084       .  S
C2580      C2581   1.404       .  A
C2581      H2590   1.084       .  S
C2582      C2583   1.406       .  A
C2582      H2591   1.084       .  S
C2583      C2584   1.406       .  A
C2584      H2592   1.084       .  S
C2593      C2594   1.398       .  A
C2593      C2598   1.403       .  A
C2593      H2609   1.084       .  S
C2594      C2595   1.404       .  A
C2594      H2610   1.084       .  S
C2595      C2605   1.401       .  A
C2595      C2596   1.410       .  A
C2596      C2602   1.412       .  A
C2596      C2597   1.411       .  A
C2597      C2599   1.411       .  A
C2597      C2598   1.411       .  A
C2598      C2606   1.403       .  A
C2599      C2608   1.402       .  A
C2599      C2600   1.403       .  A
C2600      C2601   1.399       .  A
C2600      H2611   1.084       .  S
C2601      C2602   1.403       .  A
C2601      H2612   1.083       .  S
C2602      C2603   1.404       .  A
C2603      C2604   1.407       .  A
C2603      H2613   1.084       .  S
C2604      C2605   1.408       .  A
C2605      H2614   1.084       .  S
C2606      C2607   1.408       .  A
C2606      H2615   1.084       .  S
C2607      C2608   1.407       .  A
C2608      H2616   1.084       .  S
C2617      C2618   1.398       .  A
C2617      C2622   1.403       .  A
C2617      H2633   1.083       .  S
C2618      C2619   1.403       .  A
C2618      H2634   1.084       .  S
C2619      C2629   1.401       .  A
C2619      C2620   1.411       .  A
C2620      C2626   1.412       .  A
C2620      C2621   1.409       .  A
C2621      C2623   1.412       .  A
C2621      C2622   1.413       .  A
C2622      C2630   1.402       .  A
C2623      C2632   1.400       .  A
C2623      C2624   1.403       .  A
C2624      C2625   1.398       .  A
C2624      H2635   1.084       .  S
C2625      C2626   1.403       .  A
C2625      H2636   1.083       .  S
C2626      C2627   1.401       .  A
C2627      C2628   1.406       .  A
C2627      H2637   1.084       .  S
C2628      C2629   1.406       .  A
C2629      H2638   1.084       .  S
C2630      C2631   1.401       .  A
C2630      H2639   1.084       .  S
C2631      C2632   1.402       .  A
C2632      H2640   1.085       .  S
C2641      C2642   1.398       .  A
C2641      C2646   1.403       .  A
C2641      H2657   1.084       .  S
C2642      C2643   1.403       .  A
C2642      H2658   1.083       .  S
C2643      C2653   1.404       .  A
C2643      C2644   1.412       .  A
C2644      C2650   1.410       .  A
C2644      C2645   1.412       .  A
C2645      C2647   1.412       .  A
C2645      C2646   1.410       .  A
C2646      C2654   1.401       .  A
C2647      C2656   1.403       .  A
C2647      C2648   1.403       .  A
C2648      C2649   1.399       .  A
C2648      H2659   1.084       .  S
C2649      C2650   1.404       .  A
C2649      H2660   1.084       .  S
C2650      C2651   1.402       .  A
C2651      C2652   1.409       .  A
C2651      H2661   1.084       .  S
C2652      C2653   1.407       .  A
C2653      H2662   1.084       .  S
C2654      C2655   1.407       .  A
C2654      H2663   1.084       .  S
C2655      C2656   1.407       .  A
C2656      H2664   1.084       .  S
C2665      C2666   1.398       .  A
C2665      C2670   1.403       .  A
C2665      H2681   1.084       .  S
C2666      C2667   1.403       .  A
C2666      H2682   1.084       .  S
C2667      C2677   1.401       .  A
C2667      C2668   1.410       .  A
C2668      C2674   1.412       .  A
C2668      C2669   1.411       .  A
C2669      C2671   1.411       .  A
C2669      C2670   1.412       .  A
C2670      C2678   1.403       .  A
C2671      C2680   1.402       .  A
C2671      C2672   1.404       .  A
C2672      C2673   1.399       .  A
C2672      H2683   1.084       .  S
C2673      C2674   1.404       .  A
C2673      H2684   1.084       .  S
C2674      C2675   1.404       .  A
C2675      C2676   1.407       .  A
C2675      H2685   1.084       .  S
C2676      C2677   1.407       .  A
C2677      H2686   1.084       .  S
C2678      C2679   1.407       .  A
C2678      H2687   1.084       .  S
C2679      C2680   1.407       .  A
C2680      H2688   1.084       .  S
C2689      C2690   1.399       .  A
C2689      C2694   1.403       .  A
C2689      H2705   1.083       .  S
C2690      C2691   1.403       .  A
C2690      H2706   1.084       .  S
C2691      C2701   1.403       .  A
C2691      C2692   1.412       .  A
C2692      C2698   1.412       .  A
C2692      C2693   1.413       .  A
C2693      C2695   1.413       .  A
C2693      C2694   1.412       .  A
C2694      C2702   1.402       .  A
C2695      C2704   1.406       .  A
C2695      C2696   1.404       .  A
C2696      C2697   1.400       .  A
C2696      H2707   1.083       .  S
C2697      C2698   1.404       .  A
C2697      H2708   1.083       .  S
C2698      C2699   1.405       .  A
C2699      C2700   1.407       .  A
C2699      H2709   1.084       .  S
C2700      C2701   1.406       .  A
C2701      H2710   1.084       .  S
C2702      C2703   1.403       .  A
C2702      H2711   1.084       .  S
C2703      C2704   1.405       .  A
C2704      H2712   1.084       .  S
C2713      C2714   1.398       .  A
C2713      C2718   1.403       .  A
C2713      H2729   1.083       .  S
C2714      C2715   1.403       .  A
C2714      H2730   1.084       .  S
C2715      C2725   1.401       .  A
C2715      C2716   1.412       .  A
C2716      C2722   1.413       .  A
C2716      C2717   1.411       .  A
C2717      C2719   1.411       .  A
C2717      C2718   1.412       .  A
C2718      C2726   1.402       .  A
C2719      C2728   1.403       .  A
C2719      C2720   1.404       .  A
C2720      C2721   1.399       .  A
C2720      H2731   1.084       .  S
C2721      C2722   1.403       .  A
C2721      H2732   1.083       .  S
C2722      C2723   1.403       .  A
C2723      C2724   1.403       .  A
C2723      H2733   1.084       .  S
C2724      C2725   1.403       .  A
C2725      H2734   1.085       .  S
C2726      C2727   1.406       .  A
C2726      H2735   1.084       .  S
C2727      C2728   1.406       .  A
C2728      H2736   1.084       .  S
C2737      C2738   1.399       .  A
C2737      C2742   1.403       .  A
C2737      H2753   1.083       .  S
C2738      C2739   1.403       .  A
C2738      H2754   1.084       .  S
C2739      C2749   1.402       .  A
C2739      C2740   1.412       .  A
C2740      C2746   1.411       .  A
C2740      C2741   1.410       .  A
C2741      C2743   1.413       .  A
C2741      C2742   1.412       .  A
C2742      C2750   1.402       .  A
C2743      C2752   1.401       .  A
C2743      C2744   1.403       .  A
C2744      C2745   1.398       .  A
C2744      H2755   1.083       .  S
C2745      C2746   1.403       .  A
C2745      H2756   1.083       .  S
C2746      C2747   1.400       .  A
C2747      C2748   1.405       .  A
C2747      H2757   1.084       .  S
C2748      C2749   1.406       .  A
C2749      H2758   1.084       .  S
C2750      C2751   1.403       .  A
C2750      H2759   1.085       .  S
C2751      C2752   1.402       .  A
C2752      H2760   1.085       .  S
C2761      C2762   1.398       .  A
C2761      C2766   1.403       .  A
C2761      H2777   1.084       .  S
C2762      C2763   1.403       .  A
C2762      H2778   1.083       .  S
C2763      C2773   1.401       .  A
C2763      C2764   1.412       .  A
C2764      C2770   1.412       .  A
C2764      C2765   1.410       .  A
C2765      C2767   1.412       .  A
C2765      C2766   1.412       .  A
C2766      C2774   1.401       .  A
C2767      C2776   1.403       .  A
C2767      C2768   1.404       .  A
C2768      C2769   1.399       .  A
C2768      H2779   1.084       .  S
C2769      C2770   1.404       .  A
C2769      H2780   1.083       .  S
C2770      C2771   1.402       .  A
C2771      C2772   1.405       .  A
C2771      H2781   1.084       .  S
C2772      C2773   1.403       .  A
C2773      H2782   1.084       .  S
C2774      C2775   1.403       .  A
C2774      H2783   1.085       .  S
C2775      C2776   1.405       .  A
C2776      H2784   1.084       .  S
C2785      C2786   1.398   1_545  A
C2785      C2790   1.403       .  A
C2785      H2801   1.084       .  S
C2786      C2787   1.403       .  A
C2786      H2802   1.083       .  S
C2787      C2797   1.402       .  A
C2787      C2788   1.411       .  A
C2788      C2794   1.411       .  A
C2788      C2789   1.410   1_565  A
C2789      C2791   1.411       .  A
C2789      C2790   1.411       .  A
C2790      C2798   1.402       .  A
C2791      C2800   1.401       .  A
C2791      C2792   1.403       .  A
C2792      C2793   1.398   1_545  A
C2792      H2803   1.084       .  S
C2793      C2794   1.403       .  A
C2793      H2804   1.084       .  S
C2794      C2795   1.401       .  A
C2795      C2796   1.407       .  A
C2795      H2805   1.084       .  S
C2796      C2797   1.407       .  A
C2797      H2806   1.084       .  S
C2798      C2799   1.407       .  A
C2798      H2807   1.084       .  S
C2799      C2800   1.407       .  A
C2800      H2808   1.084       .  S
C2809      C2810   1.397       .  A
C2809      C2814   1.403       .  A
C2809      H2825   1.083       .  S
C2810      C2811   1.402       .  A
C2810      H2826   1.084       .  S
C2811      C2821   1.400       .  A
C2811      C2812   1.413       .  A
C2812      C2818   1.412       .  A
C2812      C2813   1.409       .  A
C2813      C2815   1.413       .  A
C2813      C2814   1.411       .  A
C2814      C2822   1.399       .  A
C2815      C2824   1.403       .  A
C2815      C2816   1.404       .  A
C2816      C2817   1.399       .  A
C2816      H2827   1.083       .  S
C2817      C2818   1.404       .  A
C2817      H2828   1.084       .  S
C2818      C2819   1.402       .  A
C2819      C2820   1.404       .  A
C2819      H2829   1.085       .  S
C2820      C2821   1.401       .  A
C2821      H2830   1.085       .  S
C2822      C2823   1.403       .  A
C2822      H2831   1.085       .  S
C2823      C2824   1.405       .  A
C2824      H2832   1.084       .  S
C2833      C2834   1.399       .  A
C2833      C2838   1.404       .  A
C2833      H2849   1.083       .  S
C2834      C2835   1.403       .  A
C2834      H2850   1.084       .  S
C2835      C2845   1.402       .  A
C2835      C2836   1.412       .  A
C2836      C2842   1.412       .  A
C2836      C2837   1.410       .  A
C2837      C2839   1.412       .  A
C2837      C2838   1.412       .  A
C2838      C2846   1.402       .  A
C2839      C2848   1.401       .  A
C2839      C2840   1.403       .  A
C2840      C2841   1.398       .  A
C2840      H2851   1.083       .  S
C2841      C2842   1.403       .  A
C2841      H2852   1.083       .  S
C2842      C2843   1.401       .  A
C2843      C2844   1.403       .  A
C2843      H2853   1.084       .  S
C2844      C2845   1.404       .  A
C2845      H2854   1.085       .  S
C2846      C2847   1.405       .  A
C2846      H2855   1.084       .  S
C2847      C2848   1.403       .  A
C2848      H2856   1.084       .  S
C2857      C2858   1.395   1_455  A
C2857      C2862   1.402       .  A
C2857      H2873   1.084       .  S
C2858      C2859   1.402       .  A
C2858      H2874   1.084       .  S
C2859      C2869   1.398       .  A
C2859      C2860   1.411       .  A
C2860      C2866   1.412       .  A
C2860      C2861   1.412   1_655  A
C2861      C2863   1.412       .  A
C2861      C2862   1.411       .  A
C2862      C2870   1.398       .  A
C2863      C2872   1.407       .  A
C2863      C2864   1.405       .  A
C2864      C2865   1.402   1_455  A
C2864      H2875   1.084       .  S
C2865      C2866   1.405       .  A
C2865      H2876   1.084       .  S
C2866      C2867   1.408       .  A
C2867      C2868   1.408       .  A
C2867      H2877   1.084       .  S
C2868      C2869   1.404       .  A
C2869      H2878   1.085       .  S
C2870      C2871   1.404       .  A
C2870      H2879   1.084       .  S
C2871      C2872   1.408       .  A
C2872      H2880   1.084       .  S
C2881      C2882   1.398       .  A
C2881      C2886   1.403       .  A
C2881      H2897   1.084       .  S
C2882      C2883   1.403       .  A
C2882      H2898   1.083       .  S
C2883      C2893   1.402       .  A
C2883      C2884   1.412       .  A
C2884      C2890   1.412       .  A
C2884      C2885   1.411       .  A
C2885      C2887   1.412       .  A
C2885      C2886   1.413       .  A
C2886      C2894   1.403       .  A
C2887      C2896   1.403       .  A
C2887      C2888   1.404       .  A
C2888      C2889   1.400       .  A
C2888      H2899   1.083       .  S
C2889      C2890   1.404       .  A
C2889      H2900   1.084       .  S
C2890      C2891   1.403       .  A
C2891      C2892   1.406       .  A
C2891      H2901   1.084       .  S
C2892      C2893   1.405       .  A
C2893      H2902   1.084       .  S
C2894      C2895   1.403       .  A
C2894      H2903   1.084       .  S
C2895      C2896   1.405       .  A
C2896      H2904   1.084       .  S
C2905      C2906   1.398       .  A
C2905      C2910   1.403       .  A
C2905      H2921   1.083       .  S
C2906      C2907   1.403       .  A
C2906      H2922   1.083       .  S
C2907      C2917   1.404       .  A
C2907      C2908   1.413       .  A
C2908      C2914   1.411       .  A
C2908      C2909   1.412       .  A
C2909      C2911   1.413       .  A
C2909      C2910   1.410       .  A
C2910      C2918   1.401       .  A
C2911      C2920   1.407       .  A
C2911      C2912   1.404       .  A
C2912      C2913   1.401       .  A
C2912      H2923   1.083       .  S
C2913      C2914   1.404       .  A
C2913      H2924   1.083       .  S
C2914      C2915   1.403       .  A
C2915      C2916   1.405       .  A
C2915      H2925   1.084       .  S
C2916      C2917   1.403       .  A
C2917      H2926   1.084       .  S
C2918      C2919   1.406       .  A
C2918      H2927   1.084       .  S
C2919      C2920   1.407       .  A
C2920      H2928   1.084       .  S
C2929      C2930   1.396   1_655  A
C2929      C2934   1.402       .  A
C2929      H2945   1.084       .  S
C2930      C2931   1.403       .  A
C2930      H2946   1.083       .  S
C2931      C2941   1.399       .  A
C2931      C2932   1.411       .  A
C2932      C2938   1.411       .  A
C2932      C2933   1.409   1_455  A
C2933      C2935   1.412       .  A
C2933      C2934   1.411       .  A
C2934      C2942   1.397       .  A
C2935      C2944   1.403       .  A
C2935      C2936   1.403       .  A
C2936      C2937   1.399   1_655  A
C2936      H2947   1.083       .  S
C2937      C2938   1.403       .  A
C2937      H2948   1.084       .  S
C2938      C2939   1.402       .  A
C2939      C2940   1.405       .  A
C2939      H2949   1.084       .  S
C2940      C2941   1.405       .  A
C2941      H2950   1.084       .  S
C2942      C2943   1.405       .  A
C2942      H2951   1.085       .  S
C2943      C2944   1.405       .  A
C2944      H2952   1.084       .  S
C2953      C2954   1.399   1_565  A
C2953      C2958   1.404       .  A
C2953      H2969   1.084       .  S
C2954      C2955   1.404       .  A
C2954      H2970   1.084       .  S
C2955      C2965   1.402       .  A
C2955      C2956   1.410       .  A
C2956      C2962   1.412       .  A
C2956      C2957   1.412   1_545  A
C2957      C2959   1.410       .  A
C2957      C2958   1.412       .  A
C2958      C2966   1.405       .  A
C2959      C2968   1.401       .  A
C2959      C2960   1.403       .  A
C2960      C2961   1.398   1_565  A
C2960      H2971   1.084       .  S
C2961      C2962   1.403       .  A
C2961      H2972   1.084       .  S
C2962      C2963   1.403       .  A
C2963      C2964   1.406       .  A
C2963      H2973   1.084       .  S
C2964      C2965   1.409       .  A
C2965      H2974   1.084       .  S
C2966      C2967   1.408       .  A
C2966      H2975   1.084       .  S
C2967      C2968   1.408       .  A
C2968      H2976   1.084       .  S
