geometry optimzed in LAMMPS
_audit_creation_date              2020-11-30 
_audit_creation_method            'lammps2cif' 
_symmetry_space_group_name_H-M    'P1' 
_symmetry_Int_Tables_number       1 
_symmetry_cell_setting            triclinic 
loop_ 
_symmetry_equiv_pos_as_xyz 
  x,y,z 
_cell_length_a                    51.720604746053525 
_cell_length_b                    51.63111834301903 
_cell_length_c                    26.187135169584444 
_cell_angle_alpha                 90.09021054746727 
_cell_angle_beta                  90.06123867549464 
_cell_angle_gamma                 90.30307551237277 
loop_ 
_atom_site_label 
_atom_site_type_symbol 
_atom_site_fract_x 
_atom_site_fract_y 
_atom_site_fract_z 
_atom_site_charge 
Zn1        Zn  0.65323973  0.89464061  0.22806066     1.49720
Zn2        Zn  0.60671966  0.90219479  0.14853558     1.49360
Zn3        Zn  0.64469558  0.85444489  0.13857364     1.49110
Zn4        Zn  0.60524305  0.85514396  0.22918350     1.49480
O5          O  0.62721763  0.87684513  0.18648131    -1.84040
O6          O  0.64614953  0.93258395  0.22928119    -0.74670
O7          O  0.61445713  0.89928042  0.07167909    -0.74490
O8          O  0.68194800  0.86334230  0.13456606    -0.74010
O9          O  0.61279030  0.93868481  0.17703285    -0.74690
O10         O  0.68953235  0.89022621  0.19906841    -0.74280
O11         O  0.63245930  0.86016659  0.06784692    -0.74870
O12         O  0.61203441  0.81698440  0.21801146    -0.74260
O13         O  0.56868217  0.89452157  0.15838970    -0.75020
O14         O  0.64121638  0.81680963  0.15601105    -0.74410
O15         O  0.56762735  0.86193430  0.21392740    -0.74870
O16         O  0.61246562  0.86278516  0.30327926    -0.74780
O17         O  0.64967837  0.88482272  0.30258748    -0.74570
C18         C  0.62932593  0.94723539  0.20920889     0.77220
C19         C  0.62321784  0.88006758  0.04624579     0.77710
C20         C  0.69727166  0.87766221  0.16002357     0.76670
C21         C  0.62724926  0.80485323  0.18828559     0.77040
C22         C  0.55616293  0.87810008  0.18510443     0.78180
C23         C  0.63115440  0.87386276  0.32653771     0.77230
Zn24       Zn  0.60302401  0.89410823  0.73330539     1.49720
Zn25       Zn  0.64349118  0.90300419  0.64498129     1.49360
Zn26       Zn  0.65186124  0.85718176  0.72589720     1.49110
Zn27       Zn  0.60536822  0.85395613  0.64390323     1.49480
O28         O  0.62619098  0.87680139  0.68674487    -1.84040
O29         O  0.61023126  0.93187699  0.73585667    -0.74670
O30         O  0.68139477  0.89486300  0.64059149    -0.74490
O31         O  0.64847091  0.86593875  0.80247465    -0.74010
O32         O  0.63890636  0.93962263  0.67476219    -0.74690
O33         O  0.60866677  0.88223633  0.80439376    -0.74280
O34         O  0.68831009  0.86365975  0.69718347    -0.74870
O35         O  0.61283237  0.81651867  0.66025506    -0.74260
O36         O  0.63231415  0.89980924  0.57104440    -0.75020
O37         O  0.64490442  0.81852662  0.71710777    -0.74410
O38         O  0.61378990  0.86086235  0.57001968    -0.74870
O39         O  0.56687400  0.85992443  0.65364426    -0.74780
O40         O  0.56573601  0.88948639  0.71515808    -0.74570
C41         C  0.62472844  0.94745665  0.71160484     0.77220
C42         C  0.69646281  0.87875719  0.66199946     0.77710
C43         C  0.62874137  0.87407273  0.82714061     0.76670
C44         C  0.62899219  0.80556037  0.68981759     0.77040
C45         C  0.62323335  0.88038740  0.54659975     0.78180
C46         C  0.55427329  0.87487858  0.68317678     0.77230
Zn47       Zn  0.85442632  0.85548182  0.10889978     1.49720
Zn48       Zn  0.84730679  0.89602568  0.02146638     1.49360
Zn49       Zn  0.89353318  0.90354532  0.10266771     1.49110
Zn50       Zn  0.89490581  0.85747638  0.01993936     1.49480
O51         O  0.87287300  0.87839135  0.06343717    -1.84040
O52         O  0.81682499  0.86344989  0.11009989    -0.74670
O53         O  0.85574475  0.93363681  0.01946637    -0.74490
O54         O  0.88556658  0.89938528  0.17952471    -0.74010
O55         O  0.81060660  0.89218733  0.04843070    -0.74690
O56         O  0.86489576  0.86146744  0.18000264    -0.74280
O57         O  0.88745732  0.94042835  0.07522954    -0.74870
O58         O  0.93253370  0.86365421  0.03642278    -0.74260
O59         O  0.85027318  0.88548344  0.94791072    -0.75020
O60         O  0.93177004  0.89616372  0.09245924    -0.74410
O61         O  0.88842237  0.86609935  0.94652670    -0.74870
O62         O  0.88767433  0.81938360  0.02831661    -0.74780
O63         O  0.85988385  0.81800881  0.09295547    -0.74570
C64         C  0.80213048  0.87856463  0.08538290     0.77220
C65         C  0.87202381  0.94869052  0.04080166     0.77710
C66         C  0.87493608  0.88050990  0.20346063     0.76670
C67         C  0.94409681  0.87976847  0.06550014     0.77040
C68         C  0.86919967  0.87598571  0.92331101     0.78180
C69         C  0.87364381  0.80675993  0.05951816     0.77230
Zn70       Zn  0.85335589  0.90264268  0.60516812     1.49720
Zn71       Zn  0.84747325  0.85623979  0.52331060     1.49360
Zn72       Zn  0.89564116  0.89535892  0.52107094     1.49110
Zn73       Zn  0.89228963  0.85508555  0.60823423     1.49480
O74         O  0.87177658  0.87706134  0.56440624    -1.84040
O75         O  0.81607522  0.89294863  0.60768803    -0.74670
O76         O  0.85316180  0.86428208  0.44700083    -0.74490
O77         O  0.88875229  0.93278369  0.52082524    -0.74010
O78         O  0.80999229  0.86239234  0.54864450    -0.74690
O79         O  0.85694641  0.93930069  0.57603709    -0.74280
O80         O  0.89065540  0.88522480  0.44961242    -0.74870
O81         O  0.93051643  0.85960056  0.59791045    -0.74260
O82         O  0.85538494  0.81771902  0.53288856    -0.75020
O83         O  0.93269288  0.89004827  0.53856602    -0.74410
O84         O  0.88475803  0.81803182  0.59434268    -0.74870
O85         O  0.88502011  0.86291277  0.68117372    -0.74780
O86         O  0.86403871  0.90047686  0.67911532    -0.74570
C87         C  0.80144853  0.87700622  0.58435487     0.77220
C88         C  0.87257972  0.87466919  0.42437029     0.77710
C89         C  0.87275652  0.94769857  0.54246196     0.76670
C90         C  0.94358701  0.87447534  0.56912189     0.77040
C91         C  0.87060712  0.80568647  0.56300206     0.78180
C92         C  0.87476391  0.88212282  0.70366523     0.77230
Zn93       Zn  0.89519802  0.10410405  0.48216877     1.49720
Zn94       Zn  0.85520811  0.09534750  0.39441500     1.49360
Zn95       Zn  0.84673167  0.14081311  0.47618731     1.49110
Zn96       Zn  0.89287187  0.14415419  0.39406591     1.49480
O97         O  0.87218131  0.12144467  0.43653679    -1.84040
O98         O  0.88810088  0.06657855  0.48421253    -0.74670
O99         O  0.81788101  0.10399174  0.38882060    -0.74490
O100        O  0.85051905  0.13235779  0.55243757    -0.74010
O101        O  0.85810709  0.05912150  0.42525504    -0.74690
O102        O  0.88976827  0.11532713  0.55313574    -0.74280
O103        O  0.81030958  0.13398679  0.44794991    -0.74870
O104        O  0.88536714  0.18128124  0.41028161    -0.74260
O105        O  0.86733215  0.09764502  0.32116303    -0.75020
O106        O  0.85371561  0.17931429  0.46790931    -0.74410
O107        O  0.88457871  0.13708698  0.32079124    -0.74870
O108        O  0.93126936  0.13903324  0.40411481    -0.74780
O109        O  0.93207025  0.10957964  0.46517974    -0.74570
C110        C  0.87250961  0.05135270  0.46166003     0.77220
C111        C  0.80266114  0.11954397  0.41116177     0.77710
C112        C  0.87019268  0.12392857  0.57677166     0.76670
C113        C  0.86952610  0.19219386  0.44044425     0.77040
C114        C  0.87579333  0.11735470  0.29700746     0.78180
C115        C  0.94378802  0.12448801  0.43445618     0.77230
Zn116      Zn  0.84784111  0.10616381  0.97896341     1.49720
Zn117      Zn  0.85632373  0.14627865  0.89104308     1.49360
Zn118      Zn  0.89647156  0.14479506  0.97973339     1.49110
Zn119      Zn  0.89436592  0.09802189  0.89942787     1.49480
O120        O  0.87404146  0.12350405  0.93744872    -1.84040
O121        O  0.81138871  0.10984354  0.94946831    -0.74670
O122        O  0.86022735  0.18388171  0.90887794    -0.74490
O123        O  0.88986232  0.13596532  0.05292420    -0.74010
O124        O  0.81895591  0.13741028  0.88634370    -0.74690
O125        O  0.85108899  0.11707406  0.05278961    -0.74280
O126        O  0.88948158  0.18307744  0.97064663    -0.74870
O127        O  0.93270789  0.10507348  0.90960125    -0.74260
O128        O  0.86852076  0.14073212  0.82072594    -0.75020
O129        O  0.93410366  0.13824949  0.96402414    -0.74410
O130        O  0.88614450  0.10154660  0.82283981    -0.74870
O131        O  0.88786298  0.06146060  0.92764947    -0.74780
O132        O  0.85544600  0.06832985  0.98163736    -0.74570
C133        C  0.80373533  0.12248428  0.91048156     0.77220
C134        C  0.87458141  0.19561179  0.94100328     0.77710
C135        C  0.87057998  0.12640236  0.07661947     0.76670
C136        C  0.94536830  0.12153450  0.93614544     0.77040
C137        C  0.87733920  0.12092281  0.79794655     0.78180
C138        C  0.87172708  0.05327345  0.96089993     0.77230
Zn139      Zn  0.65295476  0.10504575  0.27125114     1.49720
Zn140      Zn  0.60698099  0.09633604  0.35309097     1.49360
Zn141      Zn  0.64385842  0.14512609  0.35787534     1.49110
Zn142      Zn  0.60365516  0.14148925  0.26944905     1.49480
O143        O  0.62653012  0.12159484  0.31260069    -1.84040
O144        O  0.64513644  0.06719299  0.26883576    -0.74670
O145        O  0.61622466  0.10088103  0.42944064    -0.74490
O146        O  0.68113362  0.13697515  0.36450651    -0.74010
O147        O  0.61388842  0.05971529  0.32505045    -0.74690
O148        O  0.68942365  0.10986293  0.30096648    -0.74280
O149        O  0.63054855  0.14139162  0.42778314    -0.74870
O150        O  0.60994187  0.18008115  0.27742732    -0.74260
O151        O  0.56825383  0.10311838  0.34511940    -0.75020
O152        O  0.64058595  0.18193378  0.33681736    -0.74410
O153        O  0.56657828  0.13418583  0.28669714    -0.74870
O154        O  0.60971060  0.13186592  0.19621134    -0.74780
O155        O  0.64970926  0.11583001  0.19720204    -0.74570
C156        C  0.62926353  0.05174494  0.29024621     0.77220
C157        C  0.62377723  0.12145953  0.45263621     0.77710
C158        C  0.69674339  0.12268921  0.34019494     0.76670
C159        C  0.62570822  0.19295552  0.30509874     0.77040
C160        C  0.55530423  0.11857443  0.31710860     0.78180
C161        C  0.62962009  0.12336353  0.17323985     0.77230
Zn162      Zn  0.65412443  0.10568503  0.77025384     1.49720
Zn163      Zn  0.60878493  0.09682077  0.85303351     1.49360
Zn164      Zn  0.64553089  0.14578172  0.85816882     1.49110
Zn165      Zn  0.60525601  0.14219634  0.77003616     1.49480
O166        O  0.62815338  0.12226953  0.81267563    -1.84040
O167        O  0.64664625  0.06786929  0.76781266    -0.74670
O168        O  0.61802855  0.10101872  0.92915853    -0.74490
O169        O  0.68283726  0.13694114  0.86403886    -0.74010
O170        O  0.61576176  0.06030559  0.82486723    -0.74690
O171        O  0.69046444  0.10997622  0.79974210    -0.74280
O172        O  0.63252480  0.14149819  0.92844984    -0.74870
O173        O  0.61083683  0.18066898  0.77895870    -0.74260
O174        O  0.57011028  0.10359608  0.84593182    -0.75020
O175        O  0.64149614  0.18302037  0.83823873    -0.74410
O176        O  0.56862056  0.13476458  0.78780891    -0.74870
O177        O  0.61073157  0.13292150  0.69656628    -0.74780
O178        O  0.65047875  0.11633037  0.69618653    -0.74570
C179        C  0.63122140  0.05238684  0.79011391     0.77220
C180        C  0.62561278  0.12143098  0.95279798     0.77710
C181        C  0.69804356  0.12233315  0.83932642     0.76670
C182        C  0.62601019  0.19385627  0.80726256     0.77040
C183        C  0.55728551  0.11932818  0.81836943     0.78180
C184        C  0.63028406  0.12411697  0.67291468     0.77230
Zn185      Zn  0.15294904  0.89558105  0.02149457     1.49720
Zn186      Zn  0.10667979  0.90308420  0.10242948     1.49360
Zn187      Zn  0.10445756  0.85694450  0.01963396     1.49110
Zn188      Zn  0.14505170  0.85466938  0.10773202     1.49480
O189        O  0.12694643  0.87788723  0.06285243    -1.84040
O190        O  0.14516232  0.93332747  0.02020463    -0.74670
O191        O  0.06821676  0.89611998  0.09125937    -0.74490
O192        O  0.11097333  0.86617979  0.94680274    -0.74010
O193        O  0.11356535  0.94012508  0.07582591    -0.74690
O194        O  0.14952692  0.88555239  0.94734649    -0.74280
O195        O  0.06689520  0.86345669  0.03559531    -0.74870
O196        O  0.13902461  0.81721582  0.09143979    -0.74260
O197        O  0.11452329  0.89844189  0.17945946    -0.75020
O198        O  0.11084586  0.81852666  0.02747282    -0.74410
O199        O  0.13426929  0.86049324  0.17825401    -0.74870
O200        O  0.18280711  0.86245872  0.11067639    -0.74780
O201        O  0.18958724  0.89142249  0.04962212    -0.74570
C202        C  0.12917269  0.94845975  0.04167105     0.77220
C203        C  0.05558702  0.87986116  0.06409047     0.77710
C204        C  0.13001753  0.87643272  0.92342082     0.76670
C205        C  0.12474922  0.80586368  0.05870588     0.77040
C206        C  0.12450028  0.87910742  0.20286151     0.78180
C207        C  0.19779445  0.87770972  0.08667688     0.77230
Zn208      Zn  0.10258784  0.89491929  0.51753537     1.49720
Zn209      Zn  0.10596472  0.85481781  0.60540343     1.49360
Zn210      Zn  0.15169685  0.85895779  0.52433465     1.49110
Zn211      Zn  0.14185098  0.90467095  0.60671984     1.49480
O212        O  0.12593222  0.87811336  0.56344558    -1.84040
O213        O  0.06561577  0.88953819  0.53571858    -0.74670
O214        O  0.11418956  0.81800033  0.58950947    -0.74490
O215        O  0.14846551  0.86823314  0.44845325    -0.74010
O216        O  0.06759801  0.85983582  0.59673862    -0.74690
O217        O  0.10874511  0.88466866  0.44616905    -0.74280
O218        O  0.14529486  0.81998518  0.53112786    -0.74870
O219        O  0.17951004  0.89703552  0.61268611    -0.74260
O220        O  0.11432148  0.86129936  0.67841911    -0.75020
O221        O  0.18758148  0.86666285  0.55439194    -0.74410
O222        O  0.12963714  0.90144927  0.67993226    -0.74870
O223        O  0.13752256  0.94121917  0.57705248    -0.74780
O224        O  0.10933500  0.93230564  0.51585142    -0.74570
C225        C  0.05466395  0.87482964  0.56803066     0.77220
C226        C  0.13005377  0.80694372  0.55964146     0.77710
C227        C  0.12907229  0.87706979  0.42372168     0.76670
C228        C  0.19501349  0.88164678  0.59056592     0.77040
C229        C  0.12193373  0.88109255  0.70314620     0.78180
C230        C  0.12339985  0.94839896  0.53967244     0.77230
Zn231      Zn  0.34783547  0.89527873  0.23024379     1.49720
Zn232      Zn  0.35531587  0.85605098  0.13966618     1.49360
Zn233      Zn  0.39355201  0.90399824  0.14903021     1.49110
Zn234      Zn  0.39571912  0.85675222  0.22827935     1.49480
O235        O  0.37333576  0.87834270  0.18703162    -1.84040
O236        O  0.31095926  0.89121965  0.20164845    -0.74670
O237        O  0.36868452  0.86100030  0.06930401    -0.74490
O238        O  0.38679209  0.94046661  0.17644664    -0.74010
O239        O  0.31829631  0.86559595  0.13518394    -0.74690
O240        O  0.35615485  0.93321976  0.23447409    -0.74280
O241        O  0.38564503  0.90077534  0.07256897    -0.74870
O242        O  0.43298545  0.86299962  0.21118542    -0.74260
O243        O  0.35734994  0.81845919  0.15838042    -0.75020
O244        O  0.43189950  0.89698608  0.15914554    -0.74410
O245        O  0.38785409  0.81861032  0.21825083    -0.74870
O246        O  0.39094260  0.86568628  0.30218276    -0.74780
O247        O  0.35195514  0.88380688  0.30354642    -0.74570
C248        C  0.30303797  0.87927915  0.16175785     0.77220
C249        C  0.37755727  0.88110385  0.04737828     0.77710
C250        C  0.37186190  0.94837287  0.21192335     0.76670
C251        C  0.44445888  0.88009106  0.18442824     0.77040
C252        C  0.37182664  0.80659077  0.18970995     0.78180
C253        C  0.37197572  0.87528627  0.32649615     0.77230
Zn254      Zn  0.39421203  0.85614314  0.72849681     1.49720
Zn255      Zn  0.39149306  0.90227290  0.64823616     1.49360
Zn256      Zn  0.35273429  0.85417972  0.64089342     1.49110
Zn257      Zn  0.34551458  0.89338945  0.73133633     1.49480
O258        O  0.37113945  0.87684208  0.68710326    -1.84040
O259        O  0.43130999  0.86278566  0.71141776    -0.74670
O260        O  0.38393799  0.89857581  0.57149353    -0.74490
O261        O  0.35768698  0.81667006  0.65764655    -0.74010
O262        O  0.43001229  0.89582626  0.65733727    -0.74690
O263        O  0.38796996  0.81819642  0.71787439    -0.74280
O264        O  0.36365008  0.86045347  0.56946043    -0.74870
O265        O  0.30827038  0.88845171  0.70561562    -0.74260
O266        O  0.38431760  0.93851092  0.67620207    -0.75020
O267        O  0.31511284  0.86210649  0.64009617    -0.74410
O268        O  0.35278092  0.93131448  0.73224986    -0.74870
O269        O  0.35070998  0.88332429  0.80560513    -0.74780
O270        O  0.38908542  0.86430017  0.80247352    -0.74570
C271        C  0.44268832  0.87930700  0.68325813     0.77220
C272        C  0.37374551  0.87972362  0.54675862     0.77710
C273        C  0.37295318  0.80547488  0.68854337     0.76670
C274        C  0.29999032  0.87588806  0.66682647     0.77040
C275        C  0.36857515  0.94656716  0.71025239     0.78180
C276        C  0.37053491  0.87394485  0.82789534     0.77230
Zn277      Zn  0.39168771  0.09817568  0.35013434     1.49720
Zn278      Zn  0.39440151  0.14476199  0.26958685     1.49360
Zn279      Zn  0.34520041  0.10760239  0.27103419     1.49110
Zn280      Zn  0.35503574  0.14709235  0.36001377     1.49480
O281        O  0.37182513  0.12415178  0.31262530    -1.84040
O282        O  0.43009085  0.10573576  0.34256233    -0.74670
O283        O  0.38771088  0.13571828  0.19625378    -0.74490
O284        O  0.35241376  0.06970249  0.26680725    -0.74010
O285        O  0.43170615  0.13760286  0.28585275    -0.74690
O286        O  0.38518192  0.06204299  0.31919579    -0.74280
O287        O  0.34822848  0.11848045  0.19715572    -0.74870
O288        O  0.31735705  0.14047232  0.36288714    -0.74260
O289        O  0.38811877  0.18322506  0.27858785    -0.75020
O290        O  0.30902191  0.11257467  0.30059814    -0.74410
O291        O  0.36025604  0.18436377  0.34292616    -0.74870
O292        O  0.36625244  0.14021948  0.43068529    -0.74780
O293        O  0.38322697  0.10071617  0.42664289    -0.74570
C294        C  0.44299523  0.12185186  0.31572712     0.77220
C295        C  0.36800129  0.12667208  0.17288515     0.77710
C296        C  0.36911539  0.05434898  0.28514147     0.76670
C297        C  0.30156690  0.12625954  0.33838075     0.77040
C298        C  0.37375206  0.19580940  0.30924337     0.78180
C299        C  0.37470983  0.11996406  0.45237115     0.77230
Zn300      Zn  0.39712616  0.10397883  0.76787147     1.49720
Zn301      Zn  0.39494769  0.14337976  0.85882562     1.49360
Zn302      Zn  0.34903730  0.14189997  0.77557990     1.49110
Zn303      Zn  0.35609171  0.09512094  0.85497527     1.49480
O304        O  0.37406523  0.12134034  0.81449328    -1.84040
O305        O  0.43433396  0.11048949  0.78331351    -0.74670
O306        O  0.38825248  0.18111774  0.84351845    -0.74490
O307        O  0.35224178  0.13383270  0.69895346    -0.74010
O308        O  0.43327683  0.13663789  0.85071923    -0.74690
O309        O  0.39015199  0.11413098  0.69657056    -0.74280
O310        O  0.35675681  0.18027622  0.78566002    -0.74870
O311        O  0.31844808  0.10292273  0.85666578    -0.74260
O312        O  0.38614428  0.13620732  0.93185992    -0.75020
O313        O  0.31238398  0.13552653  0.80282436    -0.74410
O314        O  0.36553186  0.09815651  0.92958227    -0.74870
O315        O  0.36086081  0.05873246  0.82583104    -0.74780
O316        O  0.39107950  0.06596758  0.76742490    -0.74570
C317        C  0.44575246  0.12349610  0.81789387     0.77220
C318        C  0.37273563  0.19279892  0.81365464     0.77710
C319        C  0.37084591  0.12385751  0.67369942     0.76670
C320        C  0.30377279  0.11957294  0.83603775     0.77040
C321        C  0.37546658  0.11706958  0.95418644     0.78180
C322        C  0.37583986  0.05066066  0.79057520     0.77230
Zn323      Zn  0.10732027  0.14530511  0.39427286     1.49720
Zn324      Zn  0.10347769  0.10479066  0.48196140     1.49360
Zn325      Zn  0.14452817  0.09688013  0.39612426     1.49110
Zn326      Zn  0.15208134  0.14208319  0.47906718     1.49480
O327        O  0.12713293  0.12259663  0.43779021    -1.84040
O328        O  0.06882822  0.14029740  0.40275949    -0.74670
O329        O  0.11011185  0.06709805  0.48266709    -0.74490
O330        O  0.13363216  0.09932201  0.32217506    -0.74010
O331        O  0.06682274  0.11061775  0.46343107    -0.74690
O332        O  0.11579775  0.13831711  0.32112093    -0.74280
O333        O  0.14137149  0.06067415  0.42595921    -0.74870
O334        O  0.18869660  0.13597791  0.45161815    -0.74260
O335        O  0.10858933  0.11500258  0.55383214    -0.75020
O336        O  0.18174016  0.10558584  0.39296570    -0.74410
O337        O  0.14806922  0.13199201  0.55447427    -0.74870
O338        O  0.14505348  0.18077259  0.47217164    -0.74780
O339        O  0.11557236  0.18227627  0.41049695    -0.74570
C340        C  0.05573069  0.12551557  0.43177435     0.77220
C341        C  0.12625606  0.05241091  0.46075974     0.77710
C342        C  0.12492652  0.11874942  0.29772354     0.76670
C343        C  0.19680018  0.12126401  0.41581750     0.77040
C344        C  0.12843020  0.12268971  0.57802586     0.78180
C345        C  0.13036837  0.19362835  0.44245667     0.77230
Zn346      Zn  0.14541342  0.14657136  0.89275362     1.49720
Zn347      Zn  0.10776955  0.09791348  0.90068138     1.49360
Zn348      Zn  0.15452255  0.10612488  0.97972243     1.49110
Zn349      Zn  0.10579754  0.14467789  0.98225747     1.49480
O350        O  0.12805670  0.12352091  0.93930884    -1.84040
O351        O  0.13379188  0.14046153  0.82241080    -0.74670
O352        O  0.11384482  0.06147766  0.92964457    -0.74490
O353        O  0.19094005  0.11156133  0.95091457    -0.74010
O354        O  0.11679859  0.10090657  0.82412070    -0.74690
O355        O  0.18320387  0.13983295  0.88939549    -0.74280
O356        O  0.14755459  0.06804919  0.98092608    -0.74870
O357        O  0.11309408  0.13644758  0.05554263    -0.74260
O358        O  0.06941238  0.10518713  0.90949236    -0.75020
O359        O  0.15094775  0.11585914  0.05401566    -0.74410
O360        O  0.06817102  0.13742659  0.96617597    -0.74870
O361        O  0.11219432  0.18319691  0.97301224    -0.74780
O362        O  0.14013362  0.18378907  0.90889898    -0.74570
C363        C  0.12589427  0.12032138  0.79941776     0.77220
C364        C  0.13059125  0.05312771  0.96143645     0.77710
C365        C  0.19875625  0.12537217  0.91355875     0.76670
C366        C  0.13215849  0.12599708  0.07826732     0.77040
C367        C  0.05684293  0.12129705  0.93669316     0.78180
C368        C  0.12626040  0.19554526  0.94136196     0.77230
Zn369      Zn  0.89482508  0.35442750  0.47884314     1.49720
Zn370      Zn  0.85522513  0.35402474  0.39076511     1.49360
Zn371      Zn  0.84698447  0.39361563  0.48019381     1.49110
Zn372      Zn  0.89324862  0.40222452  0.39994332     1.49480
O373        O  0.87284221  0.37650865  0.43773548    -1.84040
O374        O  0.88674420  0.31607469  0.47028445    -0.74670
O375        O  0.81791073  0.36146981  0.38912021    -0.74490
O376        O  0.85138768  0.38303422  0.55411870    -0.74010
O377        O  0.85935050  0.31652289  0.40572965    -0.74690
O378        O  0.88952938  0.36359739  0.55218814    -0.74280
O379        O  0.81013061  0.38874433  0.45247572    -0.74870
O380        O  0.88663295  0.43881439  0.42813476    -0.74260
O381        O  0.86633541  0.36052314  0.32050676    -0.75020
O382        O  0.85438544  0.43169631  0.48222362    -0.74410
O383        O  0.88521530  0.39911188  0.32310660    -0.74870
O384        O  0.93150428  0.39469572  0.40987740    -0.74780
O385        O  0.93223556  0.36025604  0.46112095    -0.74570
C386        C  0.87216621  0.30409233  0.43877416     0.77220
C387        C  0.80235449  0.37548946  0.41419627     0.77710
C388        C  0.87102622  0.37365334  0.57709106     0.76670
C389        C  0.87067540  0.44699185  0.46163909     0.77040
C390        C  0.87571157  0.38010957  0.29778878     0.78180
C391        C  0.94379357  0.37730035  0.43435283     0.77230
Zn392      Zn  0.89408607  0.35598506  0.89427330     1.49720
Zn393      Zn  0.84766644  0.35847723  0.97551707     1.49360
Zn394      Zn  0.89646648  0.39547397  0.98376118     1.49110
Zn395      Zn  0.85661378  0.40500212  0.89591177     1.49480
O396        O  0.87334983  0.37845590  0.93709892    -1.84040
O397        O  0.88678159  0.31868959  0.91045754    -0.74670
O398        O  0.85101511  0.36648002  0.05196572    -0.74490
O399        O  0.93340275  0.38966525  0.96775188    -0.74010
O400        O  0.85421733  0.32003772  0.96599048    -0.74690
O401        O  0.93251152  0.36154653  0.90420631    -0.74280
O402        O  0.89001507  0.38477136  0.05447662    -0.74870
O403        O  0.86210817  0.44139149  0.92529568    -0.74260
O404        O  0.81148596  0.36562387  0.94776498    -0.75020
O405        O  0.89032666  0.43303084  0.98628853    -0.74410
O406        O  0.81859581  0.39775383  0.89318464    -0.74870
O407        O  0.86723220  0.40180349  0.82195914    -0.74780
O408        O  0.88567114  0.36295452  0.82096693    -0.74570
C409        C  0.87046040  0.30740848  0.93928314     0.77220
C410        C  0.87024988  0.37567985  0.07692605     0.77710
C411        C  0.94511456  0.37550295  0.93581085     0.76670
C412        C  0.87619266  0.44892379  0.96263482     0.77040
C413        C  0.80336257  0.38154380  0.91418499     0.78180
C414        C  0.87609840  0.38234533  0.79771277     0.77230
Zn415      Zn  0.89528761  0.64475241  0.01944711     1.49720
Zn416      Zn  0.89207836  0.59859790  0.10123259     1.49360
Zn417      Zn  0.85519135  0.64727806  0.10922928     1.49110
Zn418      Zn  0.84607609  0.60782454  0.01995886     1.49480
O419        O  0.87241461  0.62436990  0.06245007    -1.84040
O420        O  0.93250897  0.63777591  0.03709210    -0.74670
O421        O  0.88371947  0.60147314  0.17785441    -0.74490
O422        O  0.86196642  0.68446186  0.09367128    -0.74010
O423        O  0.93065996  0.60517659  0.09245151    -0.74690
O424        O  0.88891299  0.68308395  0.02760847    -0.74280
O425        O  0.86584529  0.64048209  0.18028177    -0.74870
O426        O  0.80951037  0.61289819  0.04743883    -0.74260
O427        O  0.88459197  0.56251457  0.07245107    -0.75020
O428        O  0.81713075  0.64065280  0.11036418    -0.74410
O429        O  0.85278792  0.57014144  0.01801921    -0.74870
O430        O  0.85033201  0.61726250  0.94565139    -0.74780
O431        O  0.88944519  0.63566390  0.94592542    -0.74570
C432        C  0.94360318  0.62150580  0.06620620     0.77220
C433        C  0.87428330  0.62051895  0.20284851     0.77710
C434        C  0.87560541  0.69571051  0.05992869     0.76670
C435        C  0.80161407  0.62635407  0.08516079     0.77040
C436        C  0.86862136  0.55463855  0.03842940     0.78180
C437        C  0.87019842  0.62589880  0.92234630     0.77230
Zn438      Zn  0.84605992  0.60525288  0.52114133     1.49720
Zn439      Zn  0.85577463  0.64536671  0.60910788     1.49360
Zn440      Zn  0.89292182  0.59686845  0.60073036     1.49110
Zn441      Zn  0.89525911  0.64262029  0.51880652     1.49480
O442        O  0.87267297  0.62222280  0.56235281    -1.84040
O443        O  0.80961631  0.61112328  0.54951261    -0.74670
O444        O  0.86782329  0.63932849  0.67949383    -0.74490
O445        O  0.88608234  0.56051023  0.57209482    -0.74010
O446        O  0.81803620  0.63843125  0.61281437    -0.74690
O447        O  0.85258963  0.56702524  0.52024256    -0.74280
O448        O  0.88538888  0.60025079  0.67753537    -0.74870
O449        O  0.93258402  0.63606988  0.53534723    -0.74260
O450        O  0.86092415  0.68258871  0.59118613    -0.75020
O451        O  0.93121297  0.60402274  0.59144722    -0.74410
O452        O  0.88829870  0.68118083  0.52579461    -0.74870
O453        O  0.88972932  0.63217832  0.44609157    -0.74780
O454        O  0.85003045  0.61512826  0.44667279    -0.74570
C455        C  0.80217131  0.62454969  0.58770352     0.77220
C456        C  0.87688772  0.61971858  0.70252391     0.77710
C457        C  0.86931909  0.55213098  0.54012251     0.76670
C458        C  0.94404775  0.61995302  0.56423692     0.77040
C459        C  0.87427182  0.69380373  0.55699585     0.78180
C460        C  0.87021574  0.62274682  0.42289452     0.77230
Zn461      Zn  0.60679610  0.64396557  0.14352021     1.49720
Zn462      Zn  0.64360990  0.59533886  0.14601066     1.49360
Zn463      Zn  0.65308949  0.64251524  0.22480358     1.49110
Zn464      Zn  0.60453281  0.60581895  0.23559336     1.49480
O465        O  0.62734423  0.62207359  0.18738538    -1.84040
O466        O  0.61685254  0.63820458  0.07040568    -0.74670
O467        O  0.68154923  0.60274513  0.14198304    -0.74490
O468        O  0.64591113  0.68079517  0.21464563    -0.74010
O469        O  0.63291306  0.59833015  0.07173174    -0.74690
O470        O  0.61254721  0.68136161  0.16092296    -0.74280
O471        O  0.68890879  0.63531263  0.19590137    -0.74870
O472        O  0.61102095  0.61874163  0.30544843    -0.74260
O473        O  0.63826442  0.55918940  0.17686116    -0.75020
O474        O  0.65061493  0.63549734  0.30184777    -0.74410
O475        O  0.61154961  0.56824252  0.24034596    -0.74870
O476        O  0.56724877  0.61032694  0.21815535    -0.74780
O477        O  0.56864839  0.63635462  0.15101069    -0.74570
C478        C  0.62553179  0.61834835  0.04727976     0.77220
C479        C  0.69676799  0.61923988  0.16227037     0.77710
C480        C  0.62889566  0.69306348  0.18916486     0.76670
C481        C  0.63110690  0.62760290  0.32750786     0.77040
C482        C  0.62506084  0.55209134  0.21570825     0.78180
C483        C  0.55590041  0.62278169  0.18294934     0.77230
Zn484      Zn  0.65253834  0.64312276  0.72518466     1.49720
Zn485      Zn  0.60539217  0.64456804  0.64489050     1.49360
Zn486      Zn  0.64425763  0.59657640  0.64454633     1.49110
Zn487      Zn  0.60431819  0.60421836  0.73425812     1.49480
O488        O  0.62689659  0.62233328  0.68722635    -1.84040
O489        O  0.64568043  0.68141528  0.71408739    -0.74670
O490        O  0.61414479  0.63887629  0.57124276    -0.74490
O491        O  0.68195449  0.60420230  0.64259133    -0.74010
O492        O  0.61173043  0.68240028  0.66165706    -0.74690
O493        O  0.68898732  0.63614099  0.69795459    -0.74280
O494        O  0.63476896  0.60107215  0.57000344    -0.74870
O495        O  0.60993425  0.56617965  0.73223043    -0.74260
O496        O  0.56722584  0.63658187  0.65353897    -0.75020
O497        O  0.63949587  0.55967163  0.67217502    -0.74410
O498        O  0.56679563  0.61070034  0.72128079    -0.74870
O499        O  0.61279267  0.61348935  0.80560448    -0.74780
O500        O  0.64956237  0.63603805  0.80211037    -0.74570
C501        C  0.62881709  0.69388911  0.68863785     0.77220
C502        C  0.62484995  0.62041490  0.54706097     0.77710
C503        C  0.69707208  0.62037292  0.66396333     0.76670
C504        C  0.62484992  0.55120539  0.70774393     0.77040
C505        C  0.55506249  0.62326635  0.68670715     0.78180
C506        C  0.63171958  0.62467678  0.82750373     0.77230
Zn507      Zn  0.60548011  0.35527010  0.26802853     1.49720
Zn508      Zn  0.64544085  0.35311088  0.35797353     1.49360
Zn509      Zn  0.65401577  0.39323349  0.26893569     1.49110
Zn510      Zn  0.60774153  0.40154167  0.34961487     1.49480
O511        O  0.62798746  0.37603881  0.31113112    -1.84040
O512        O  0.61101588  0.31699018  0.27878467    -0.74670
O513        O  0.68316284  0.36041311  0.35971219    -0.74490
O514        O  0.64996066  0.38381397  0.19412778    -0.74010
O515        O  0.64033191  0.31557019  0.34080170    -0.74690
O516        O  0.61182691  0.36368771  0.19438452    -0.74280
O517        O  0.69043662  0.38876634  0.29744218    -0.74870
O518        O  0.61561370  0.43804743  0.32323712    -0.74260
O519        O  0.63398055  0.35961883  0.42912715    -0.75020
O520        O  0.64723872  0.43093692  0.26810993    -0.74410
O521        O  0.61520402  0.39823280  0.42617710    -0.74870
O522        O  0.56916147  0.39456633  0.33958326    -0.74780
O523        O  0.56834635  0.36256704  0.28311943    -0.74570
C524        C  0.62556016  0.30429266  0.30883912     0.77220
C525        C  0.69830414  0.37509237  0.33480979     0.77710
C526        C  0.63044826  0.37442248  0.17052623     0.76670
C527        C  0.63172756  0.44629690  0.28992907     0.77040
C528        C  0.62439281  0.37923146  0.45145868     0.78180
C529        C  0.55660803  0.37831921  0.31218497     0.77230
Zn530      Zn  0.60505723  0.35630690  0.76814104     1.49720
Zn531      Zn  0.64459516  0.35417616  0.85809438     1.49360
Zn532      Zn  0.65388966  0.39460057  0.76990890     1.49110
Zn533      Zn  0.60733687  0.40261646  0.84957819     1.49480
O534        O  0.62757192  0.37721781  0.81111183    -1.84040
O535        O  0.61078293  0.31799679  0.77778129    -0.74670
O536        O  0.68223595  0.36197353  0.86228982    -0.74490
O537        O  0.64977317  0.38516153  0.69503198    -0.74010
O538        O  0.64034351  0.31679425  0.83920513    -0.74690
O539        O  0.61188275  0.36434382  0.69474249    -0.74280
O540        O  0.69026203  0.38914182  0.79883516    -0.74870
O541        O  0.61389675  0.43903256  0.82123659    -0.74260
O542        O  0.63161511  0.35966251  0.92851153    -0.75020
O543        O  0.64723171  0.43264517  0.76925244    -0.74410
O544        O  0.61517171  0.39944569  0.92615618    -0.74870
O545        O  0.56898397  0.39509378  0.84078348    -0.74780
O546        O  0.56786102  0.36343235  0.78350432    -0.74570
C547        C  0.62587256  0.30540138  0.80688182     0.77220
C548        C  0.69794148  0.37603325  0.83722306     0.77710
C549        C  0.63072579  0.37489092  0.67130620     0.76670
C550        C  0.63052102  0.44749923  0.78918478     0.77040
C551        C  0.62269311  0.37953399  0.95096579     0.78180
C552        C  0.55631440  0.37905362  0.81331762     0.77230
Zn553      Zn  0.10392894  0.64298802  0.01806911     1.49720
Zn554      Zn  0.14235940  0.64601106  0.11056680     1.49360
Zn555      Zn  0.10689532  0.59654274  0.09804870     1.49110
Zn556      Zn  0.15361653  0.60761074  0.01966658     1.49480
O557        O  0.12660557  0.62300567  0.06154852    -1.84040
O558        O  0.11129048  0.68143800  0.02464409    -0.74670
O559        O  0.12948436  0.63885527  0.18033834    -0.74490
O560        O  0.06837042  0.60288325  0.08896294    -0.74010
O561        O  0.13623196  0.68322427  0.09376480    -0.74690
O562        O  0.06663514  0.63651442  0.03614342    -0.74280
O563        O  0.11479949  0.59830191  0.17469756    -0.74870
O564        O  0.14795542  0.56921221  0.01651447    -0.74260
O565        O  0.18040907  0.63999083  0.11505539    -0.75020
O566        O  0.11469387  0.56114912  0.06793757    -0.74410
O567        O  0.18959221  0.61428641  0.04962240    -0.74870
O568        O  0.14977279  0.61835097  0.94540496    -0.74780
O569        O  0.10914772  0.63254062  0.94506587    -0.74570
C570        C  0.12400395  0.69432242  0.05784791     0.77220
C571        C  0.12164108  0.61802777  0.20105620     0.77710
C572        C  0.05546539  0.61952132  0.06371875     0.76670
C573        C  0.13157524  0.55357871  0.03572990     0.77040
C574        C  0.19662730  0.62709672  0.08906633     0.78180
C575        C  0.12923236  0.62483284  0.92162407     0.77230
Zn576      Zn  0.10695187  0.59780501  0.59901590     1.49720
Zn577      Zn  0.14465586  0.64589859  0.60820140     1.49360
Zn578      Zn  0.15371962  0.60588462  0.51904340     1.49110
Zn579      Zn  0.10601412  0.64408427  0.51677642     1.49480
O580        O  0.12760597  0.62310943  0.56066156    -1.84040
O581        O  0.11438312  0.60094817  0.67605295    -0.74670
O582        O  0.18203516  0.63770470  0.61223524    -0.74490
O583        O  0.14640314  0.56800423  0.51807288    -0.74010
O584        O  0.13247836  0.64003077  0.67881021    -0.74690
O585        O  0.11357211  0.56124255  0.57116222    -0.74280
O586        O  0.18991741  0.61045994  0.54857145    -0.74870
O587        O  0.11177209  0.63389161  0.44403396    -0.74260
O588        O  0.14034378  0.68329797  0.59074535    -0.75020
O589        O  0.15037128  0.61529143  0.44412579    -0.74410
O590        O  0.11386515  0.68258669  0.52400040    -0.74870
O591        O  0.06853173  0.63779066  0.53305669    -0.74780
O592        O  0.06886706  0.60557343  0.58898568    -0.74570
C593        C  0.12319988  0.62029018  0.70133061     0.77220
C594        C  0.19737453  0.62312271  0.58784973     0.77710
C595        C  0.13002264  0.55291020  0.53870431     0.76670
C596        C  0.13058647  0.62361806  0.42024933     0.77040
C597        C  0.12774510  0.69499283  0.55609499     0.78180
C598        C  0.05657316  0.62200811  0.56202457     0.77230
Zn599      Zn  0.15278393  0.35703716  0.47546171     1.49720
Zn600      Zn  0.10713236  0.35500663  0.39257569     1.49360
Zn601      Zn  0.10417983  0.39471691  0.48303787     1.49110
Zn602      Zn  0.14497558  0.40362284  0.39560815     1.49480
O603        O  0.12746771  0.37741137  0.43679875    -1.84040
O604        O  0.14545973  0.31862558  0.46656934    -0.74670
O605        O  0.06852465  0.36114666  0.40065265    -0.74490
O606        O  0.11190955  0.38511238  0.55463866    -0.74010
O607        O  0.11421532  0.31763212  0.40839744    -0.74690
O608        O  0.14991293  0.36511546  0.55164513    -0.74280
O609        O  0.06695666  0.38756795  0.46726622    -0.74870
O610        O  0.14053332  0.44005987  0.42554940    -0.74260
O611        O  0.11721415  0.36142598  0.31958590    -0.75020
O612        O  0.10958026  0.43288742  0.48250446    -0.74410
O613        O  0.13419694  0.40113911  0.32149640    -0.74870
O614        O  0.18265960  0.39507091  0.39150528    -0.74780
O615        O  0.18922285  0.36339711  0.44746721    -0.74570
C616        C  0.12991202  0.30601957  0.43788390     0.77220
C617        C  0.05559438  0.37421881  0.43298464     0.77710
C618        C  0.13137979  0.37525115  0.57681771     0.76670
C619        C  0.12504864  0.44820056  0.45993230     0.77040
C620        C  0.12665714  0.38111940  0.29692096     0.78180
C621        C  0.19746974  0.37871179  0.41277943     0.77230
Zn622      Zn  0.10874240  0.35553755  0.89286778     1.49720
Zn623      Zn  0.15360087  0.35828035  0.97719305     1.49360
Zn624      Zn  0.14613957  0.40389695  0.89452144     1.49110
Zn625      Zn  0.10552570  0.39600522  0.98206226     1.49480
O626        O  0.12875851  0.37824871  0.93686519    -1.84040
O627        O  0.11562211  0.31859111  0.90984067    -0.74670
O628        O  0.19003437  0.36408245  0.94893354    -0.74490
O629        O  0.13489633  0.40112903  0.82069459    -0.74010
O630        O  0.14542682  0.31985425  0.97106711    -0.74690
O631        O  0.11828738  0.36128673  0.81965675    -0.74280
O632        O  0.18355958  0.39488724  0.89082895    -0.74870
O633        O  0.11101895  0.43402229  0.97998586    -0.74260
O634        O  0.15084129  0.36765728  0.05278352    -0.75020
O635        O  0.14219664  0.44052190  0.92323680    -0.74410
O636        O  0.11264215  0.38725829  0.05435971    -0.74870
O637        O  0.06866698  0.38862772  0.96572462    -0.74780
O638        O  0.07031117  0.36119468  0.90088897    -0.74570
C639        C  0.13012016  0.30722914  0.94193281     0.77220
C640        C  0.19825024  0.37885369  0.91330126     0.77710
C641        C  0.12697158  0.38115088  0.79649652     0.76670
C642        C  0.12666025  0.44902685  0.95712597     0.77040
C643        C  0.13225839  0.37815691  0.07720577     0.78180
C644        C  0.05734724  0.37472588  0.93228332     0.77230
Zn645      Zn  0.35476915  0.40337881  0.35630882     1.49720
Zn646      Zn  0.34751797  0.35787585  0.27396652     1.49360
Zn647      Zn  0.39551302  0.39677208  0.26758999     1.49110
Zn648      Zn  0.39423278  0.35622499  0.35530241     1.49480
O649        O  0.37274798  0.37836587  0.31333546    -1.84040
O650        O  0.31729772  0.39420168  0.35913122    -0.74670
O651        O  0.35117326  0.36572309  0.19759093    -0.74490
O652        O  0.38758822  0.43412567  0.26777457    -0.74010
O653        O  0.31064186  0.36359840  0.30072661    -0.74690
O654        O  0.35810232  0.44034443  0.32821708    -0.74280
O655        O  0.38915732  0.38589039  0.19595499    -0.74870
O656        O  0.43241362  0.36352344  0.34638078    -0.74260
O657        O  0.35528720  0.31971754  0.28292277    -0.75020
O658        O  0.43318969  0.39287565  0.28449441    -0.74410
O659        O  0.38842823  0.31899043  0.33717271    -0.74870
O660        O  0.38484290  0.36122374  0.42882847    -0.74780
O661        O  0.36513920  0.39935171  0.43052613    -0.74570
C662        C  0.30239011  0.37829689  0.33639505     0.77220
C663        C  0.37001133  0.37568611  0.17277997     0.77710
C664        C  0.37237560  0.44883877  0.29210997     0.76670
C665        C  0.44475928  0.37862647  0.31665876     0.77040
C666        C  0.37226440  0.30740258  0.30838271     0.78180
C667        C  0.37412126  0.37950599  0.45345142     0.77230
Zn668      Zn  0.34742214  0.35580446  0.77551508     1.49720
Zn669      Zn  0.39402921  0.35517477  0.85654298     1.49360
Zn670      Zn  0.39557187  0.39460345  0.76501808     1.49110
Zn671      Zn  0.35540289  0.40337617  0.85371343     1.49480
O672        O  0.37289867  0.37706101  0.81272740    -1.84040
O673        O  0.35484238  0.31767687  0.78633309    -0.74670
O674        O  0.43226630  0.36233301  0.84682836    -0.74490
O675        O  0.38664280  0.38522551  0.69393889    -0.74010
O676        O  0.38719425  0.31717705  0.84216745    -0.74690
O677        O  0.34972849  0.36289357  0.69876573    -0.74280
O678        O  0.43300774  0.38743660  0.77793069    -0.74870
O679        O  0.36052810  0.43999657  0.82473876    -0.74260
O680        O  0.38561892  0.36226757  0.92991945    -0.75020
O681        O  0.39049585  0.43278750  0.76597957    -0.74410
O682        O  0.36503021  0.40012231  0.92833276    -0.74870
O683        O  0.31767481  0.39540412  0.85606041    -0.74780
O684        O  0.31110082  0.36217531  0.80351289    -0.74570
C685        C  0.37088527  0.30529892  0.81391867     0.77220
C686        C  0.44459752  0.37492025  0.81280736     0.77710
C687        C  0.36736116  0.37425639  0.67288804     0.76670
C688        C  0.37557571  0.44814655  0.78950645     0.77040
C689        C  0.37497100  0.38123344  0.95260093     0.78180
C690        C  0.30281107  0.37843794  0.83633777     0.77230
Zn691      Zn  0.34735619  0.64393807  0.22581742     1.49720
Zn692      Zn  0.39276709  0.64490724  0.14186759     1.49360
Zn693      Zn  0.39520655  0.60518974  0.23178081     1.49110
Zn694      Zn  0.35359493  0.59696717  0.14554883     1.49480
O695        O  0.37196038  0.62302222  0.18625690    -1.84040
O696        O  0.35494915  0.68231187  0.21501615    -0.74670
O697        O  0.43109774  0.63928587  0.15178806    -0.74490
O698        O  0.38881146  0.61486858  0.30372116    -0.74010
O699        O  0.38537508  0.68246996  0.15537639    -0.74690
O700        O  0.35166722  0.63654983  0.30245660    -0.74280
O701        O  0.43257634  0.61096425  0.21504467    -0.74870
O702        O  0.35688184  0.56052401  0.17546455    -0.74260
O703        O  0.38486821  0.63691346  0.06867675    -0.75020
O704        O  0.38799441  0.56760190  0.23212436    -0.74410
O705        O  0.36357777  0.59925358  0.07110951    -0.74870
O706        O  0.31632146  0.60588771  0.14309504    -0.74780
O707        O  0.31034483  0.63735635  0.19990715    -0.74570
C708        C  0.37045737  0.69454971  0.18569000     0.77220
C709        C  0.44396175  0.62518972  0.18232832     0.77710
C710        C  0.37013836  0.62565778  0.32667641     0.76670
C711        C  0.37189224  0.55247917  0.21064541     0.77040
C712        C  0.37409061  0.61777081  0.04641371     0.78180
C713        C  0.30173581  0.62209539  0.16527104     0.77230
Zn714      Zn  0.39413986  0.64378514  0.73091746     1.49720
Zn715      Zn  0.35513482  0.64544968  0.64028833     1.49360
Zn716      Zn  0.39281004  0.59755127  0.64883359     1.49110
Zn717      Zn  0.34610222  0.60572114  0.72891908     1.49480
O718        O  0.37233765  0.62275467  0.68731625    -1.84040
O719        O  0.38821310  0.68193685  0.72057978    -0.74670
O720        O  0.36770621  0.64047973  0.56991367    -0.74490
O721        O  0.43124291  0.60487697  0.65995963    -0.74010
O722        O  0.35856027  0.68273807  0.65920651    -0.74690
O723        O  0.43121226  0.63680028  0.71669297    -0.74280
O724        O  0.38513820  0.60128137  0.57181199    -0.74870
O725        O  0.35376825  0.56798174  0.73172656    -0.74260
O726        O  0.31806828  0.63654902  0.63475680    -0.75020
O727        O  0.38561146  0.56095340  0.67658641    -0.74410
O728        O  0.31005959  0.60957013  0.69876985    -0.74870
O729        O  0.34856435  0.61664062  0.80297572    -0.74780
O730        O  0.38730943  0.63545165  0.80433445    -0.74570
C731        C  0.37302041  0.69428960  0.69128710     0.77220
C732        C  0.37650953  0.62073382  0.54690954     0.77710
C733        C  0.44334470  0.62092064  0.68859464     0.76670
C734        C  0.36969082  0.55277849  0.71037257     0.77040
C735        C  0.30272010  0.62197001  0.65928871     0.78180
C736        C  0.36786262  0.62584390  0.82745920     0.77230
C737        C  0.34839498  0.62137283  0.96734346    -0.09070
C738        C  0.37258475  0.61801006  0.99052408     0.07130
C739        C  0.39497258  0.61761599  0.96031037    -0.02840
C740        C  0.39292804  0.62048734  0.90744010    -0.07290
C741        C  0.36873460  0.62400419  0.88381090     0.06240
C742        C  0.34628571  0.62461039  0.91445601    -0.02310
Br743      Br  0.31258749  0.63189472  0.88735623    -0.02010
H744        H  0.33115481  0.62242903  0.99073973     0.10150
H745        H  0.41037556  0.61964165  0.88464557     0.08170
Br746      Br  0.42858734  0.61242984  0.98956436    -0.02440
C747        C  0.37201005  0.60043537  0.40683762    -0.09070
C748        C  0.37030191  0.62466646  0.38281569     0.07130
C749        C  0.37145119  0.64725675  0.41251707    -0.02840
C750        C  0.37423598  0.64536641  0.46547936    -0.07290
C751        C  0.37574720  0.62111225  0.49012803     0.06240
C752        C  0.37436702  0.59841424  0.45998463    -0.02310
Br753      Br  0.37400715  0.56414488  0.48838471    -0.02010
H754        H  0.37128592  0.58291669  0.38400890     0.10150
H755        H  0.37528080  0.66312164  0.48749387     0.08170
Br756      Br  0.37089152  0.68106825  0.38220035    -0.02440
C757        C  0.35068038  0.48788738  0.76905716    -0.09070
C758        C  0.37470563  0.47551710  0.77240889     0.07130
C759        C  0.39687532  0.48849642  0.75360738    -0.02840
C760        C  0.39463011  0.51312380  0.73169615    -0.07290
C761        C  0.37059374  0.52549910  0.72823049     0.06240
C762        C  0.34840908  0.51249450  0.74705911    -0.02310
Br763      Br  0.31415536  0.52642767  0.74107728    -0.02010
H764        H  0.33337167  0.47797204  0.78196326     0.10150
H765        H  0.41195386  0.52298635  0.71872114     0.08170
Br766      Br  0.43102941  0.47433241  0.75937137    -0.02440
C767        C  0.36858339  0.40026744  0.53852379    -0.09070
C768        C  0.37147173  0.37746810  0.50975521     0.07130
C769        C  0.37067503  0.35327215  0.53546497    -0.02840
C770        C  0.36782696  0.35250485  0.58859997    -0.07290
C771        C  0.36593014  0.37536060  0.61696429     0.06240
C772        C  0.36602520  0.39937301  0.59159121    -0.02310
Br773      Br  0.36244076  0.43150325  0.62795869    -0.02010
H774        H  0.36871677  0.41896773  0.51982399     0.10150
H775        H  0.36792292  0.33399325  0.60804826     0.08170
Br776      Br  0.37263037  0.32035896  0.50125915    -0.02440
C777        C  0.39401331  0.38190370  0.09147669    -0.09070
C778        C  0.37034572  0.37614789  0.11590024     0.07130
C779        C  0.34803878  0.37242527  0.08522703    -0.02840
C780        C  0.34984795  0.37490019  0.03202709    -0.07290
C781        C  0.37351087  0.38068828  0.00850112     0.06240
C782        C  0.39570698  0.38405854  0.03848208    -0.02310
Br783      Br  0.42860661  0.39230269  0.00858534    -0.02010
H784        H  0.41148972  0.38481477  0.11361796     0.10150
H785        H  0.33273686  0.37194060  0.00875916     0.08170
Br786      Br  0.31444300  0.36448664  0.11243475    -0.02440
C787        C  0.34819328  0.48655361  0.25763177    -0.09070
C788        C  0.37141879  0.47609950  0.27595444     0.07130
C789        C  0.39441402  0.49051666  0.27110216    -0.02840
C790        C  0.39404143  0.51481177  0.24814482    -0.07290
C791        C  0.37099714  0.52539082  0.22913516     0.06240
C792        C  0.34779284  0.51100574  0.23415507    -0.02310
Br793      Br  0.31495160  0.52397450  0.21192801    -0.02010
H794        H  0.33045719  0.47538083  0.26033853     0.10150
H795        H  0.41201420  0.52560452  0.24540407     0.08170
Br796      Br  0.42689551  0.47821355  0.29647488    -0.02440
C797        C  0.27132685  0.38196085  0.90735006    -0.09070
C798        C  0.27583271  0.37711377  0.85513463     0.07130
C799        C  0.25459794  0.37161014  0.82306074    -0.02840
C800        C  0.22950961  0.37188902  0.84316920    -0.07290
C801        C  0.22512778  0.37693485  0.89520449     0.06240
C802        C  0.24629375  0.38169144  0.92753874    -0.02310
Br803      Br  0.24186002  0.38960139  0.99859355    -0.02010
H804        H  0.28741236  0.38604622  0.93271874     0.10150
H805        H  0.21325076  0.36834678  0.81791507     0.08170
Br806      Br  0.25839654  0.36527576  0.75122943    -0.02440
C807        C  0.12277239  0.39928745  0.65665588    -0.09070
C808        C  0.13215975  0.37671731  0.63308184     0.07130
C809        C  0.14022574  0.35588792  0.66377161    -0.02840
C810        C  0.13828169  0.35778471  0.71695109    -0.07290
C811        C  0.12876647  0.38032753  0.74037501     0.06240
C812        C  0.12116884  0.40130816  0.70973887    -0.02310
Br813      Br  0.10670345  0.43237268  0.73792026    -0.02010
H814        H  0.11636500  0.41542736  0.63354473     0.10150
H815        H  0.14423751  0.34152356  0.74019762     0.08170
Br816      Br  0.15228456  0.32384701  0.63540767    -0.02440
C817        C  0.12280263  0.40249919  0.21246853    -0.09070
C818        C  0.12933550  0.38051212  0.24086197     0.07130
C819        C  0.13897550  0.35848787  0.21520940    -0.02840
C820        C  0.14071301  0.35835458  0.16190386    -0.07290
C821        C  0.13292850  0.37988158  0.13339326     0.06240
C822        C  0.12443206  0.40234593  0.15919581    -0.02310
Br823      Br  0.11581347  0.43379240  0.12398189    -0.02010
H824        H  0.11604439  0.41976386  0.23175528     0.10150
H825        H  0.14763330  0.34115383  0.14261663     0.08170
Br826      Br  0.15143955  0.32859862  0.25089946    -0.02440
C827        C  0.27087985  0.37617388  0.40761941    -0.09070
C828        C  0.27533824  0.37647708  0.35458279     0.07130
C829        C  0.25400208  0.37642288  0.32119009    -0.02840
C830        C  0.22886300  0.37697636  0.34114039    -0.07290
C831        C  0.22443311  0.37696862  0.39419824     0.06240
C832        C  0.24575566  0.37610595  0.42754466    -0.02310
Br833      Br  0.24176782  0.37664996  0.50038610    -0.02010
H834        H  0.28711048  0.37617820  0.43383004     0.10150
H835        H  0.21262376  0.37751888  0.31498183     0.08170
Br836      Br  0.25807383  0.37740551  0.24839884    -0.02440
C837        C  0.25564983  0.62062041  0.67603668    -0.09070
C838        C  0.27591146  0.61970563  0.64085120     0.07130
C839        C  0.27019276  0.61780811  0.58816242    -0.02840
C840        C  0.24449166  0.61830884  0.57155022    -0.07290
C841        C  0.22420975  0.62076166  0.60662413     0.06240
C842        C  0.22998682  0.62114399  0.65950742    -0.02310
Br843      Br  0.20392340  0.62111213  0.71158478    -0.02010
H844        H  0.25980550  0.62154148  0.71657212     0.10150
H845        H  0.24039346  0.61730694  0.53101162     0.08170
Br846      Br  0.29657752  0.61344899  0.53725372    -0.02440
C847        C  0.10516160  0.51344889  0.51429403    -0.09070
C848        C  0.12925518  0.52556345  0.52136496     0.07130
C849        C  0.15185172  0.51229504  0.50618027    -0.02840
C850        C  0.14995713  0.48764351  0.48404277    -0.07290
C851        C  0.12586706  0.47554794  0.47703804     0.06240
C852        C  0.10328526  0.48877993  0.49224583    -0.02310
Br853      Br  0.06921134  0.47486664  0.48109187    -0.02010
H854        H  0.08759097  0.52356174  0.52442526     0.10150
H855        H  0.16750560  0.47749286  0.47390087     0.08170
Br856      Br  0.18599321  0.52600265  0.51753997    -0.02440
C857        C  0.10800650  0.60900925  0.84230486    -0.09070
C858        C  0.12824575  0.62298910  0.86555779     0.07130
C859        C  0.14656159  0.63562193  0.83483376    -0.02840
C860        C  0.14424244  0.63445372  0.78179982    -0.07290
C861        C  0.12427714  0.62018235  0.75799263     0.06240
C862        C  0.10602933  0.60724427  0.78897280    -0.02310
Br863      Br  0.07716042  0.58839718  0.76124975    -0.02010
H864        H  0.09366869  0.59937961  0.86581757     0.10150
H865        H  0.15820998  0.64497808  0.75902678     0.08170
Br866      Br  0.17414776  0.65607572  0.86331120    -0.02440
C867        C  0.13788837  0.59999050  0.28260392    -0.09070
C868        C  0.12150598  0.61721022  0.25710449     0.07130
C869        C  0.10822213  0.63613213  0.28520178    -0.02840
C870        C  0.11174561  0.63792356  0.33789827    -0.07290
C871        C  0.12865871  0.62121163  0.36384918     0.06240
C872        C  0.14166361  0.60182692  0.33553083    -0.02310
Br873      Br  0.16426462  0.57680196  0.36607678    -0.02010
H874        H  0.14845865  0.58560218  0.26100593     0.10150
H875        H  0.10128092  0.65271697  0.35858994     0.08170
Br876      Br  0.08473029  0.65980502  0.25321680    -0.02440
C877        C  0.22843902  0.62764672  0.16043392    -0.09070
C878        C  0.22378650  0.62630435  0.10741424     0.07130
C879        C  0.24505452  0.62393034  0.07413338    -0.02840
C880        C  0.27011613  0.62260583  0.09415549    -0.07290
C881        C  0.27470096  0.62385826  0.14709562     0.06240
C882        C  0.25354890  0.62638877  0.18037435    -0.02310
Br883      Br  0.25764226  0.62624117  0.25320576    -0.02010
H884        H  0.21236794  0.62910986  0.18676831     0.10150
H885        H  0.28624970  0.62097506  0.06798348     0.08170
Br886      Br  0.24147590  0.62399127  0.00112422    -0.02440
C887        C  0.15168722  0.48853815  0.98019526    -0.09070
C888        C  0.12756693  0.47645217  0.97334494     0.07130
C889        C  0.10498539  0.48975179  0.98817415    -0.02840
C890        C  0.10688759  0.51442071  0.00995765    -0.07290
C891        C  0.13099669  0.52648706  0.01715596     0.06240
C892        C  0.15359789  0.51324676  0.00209553    -0.02310
Br893      Br  0.18768790  0.52697778  0.01373140    -0.02010
H894        H  0.16922740  0.47831161  0.97030400     0.10150
H895        H  0.08930292  0.52452036  0.02007584     0.08170
Br896      Br  0.07086672  0.47587310  0.97729112    -0.02440
C897        C  0.51429347  0.36809059  0.77242943    -0.09070
C898        C  0.52758978  0.37838216  0.81487035     0.07130
C899        C  0.51303795  0.38702827  0.85737121    -0.02840
C900        C  0.48599457  0.38516034  0.85647732    -0.07290
C901        C  0.47300840  0.37524584  0.81366759     0.06240
C902        C  0.48733715  0.36662545  0.77145804    -0.02310
Br903      Br  0.47098806  0.35164593  0.71244907    -0.02010
H904        H  0.52488440  0.36123360  0.73944814     0.10150
H905        H  0.47500107  0.39185793  0.88909275     0.08170
Br906      Br  0.52845427  0.40075028  0.91853211    -0.02440
C907        C  0.51462396  0.39995074  0.33128477    -0.09070
C908        C  0.52782758  0.37785170  0.31390327     0.07130
C909        C  0.51303502  0.35595625  0.29840963    -0.02840
C910        C  0.48607021  0.35652426  0.30119363    -0.07290
C911        C  0.47316447  0.37869157  0.31769312     0.06240
C912        C  0.48756129  0.40057942  0.33268466    -0.02310
Br913      Br  0.47110716  0.43140459  0.35675500    -0.02010
H914        H  0.52533782  0.41700575  0.34319162     0.10150
H915        H  0.47501273  0.33967099  0.28924954     0.08170
Br916      Br  0.52758705  0.32435242  0.27310518    -0.02440
C917        C  0.62257134  0.35526764  0.53318401    -0.09070
C918        C  0.62455694  0.37925750  0.50802816     0.07130
C919        C  0.62900913  0.40184027  0.53737113    -0.02840
C920        C  0.63178235  0.39991939  0.59049781    -0.07290
C921        C  0.62975424  0.37589055  0.61520082     0.06240
C922        C  0.62494731  0.35346591  0.58614224    -0.02310
Br923      Br  0.62284904  0.31971512  0.61665148    -0.02010
H924        H  0.61934311  0.33766983  0.51144137     0.10150
H925        H  0.63516900  0.41732846  0.61274288     0.08170
Br926      Br  0.63282784  0.43556086  0.50744443    -0.02440
C927        C  0.61679357  0.35602549  0.08716415    -0.09070
C928        C  0.62870017  0.37632167  0.11424812     0.07130
C929        C  0.63669452  0.39869558  0.08733189    -0.02840
C930        C  0.63336388  0.40000336  0.03428900    -0.07290
C931        C  0.62230918  0.37927535  0.00723721     0.06240
C932        C  0.61368409  0.35726475  0.03423848    -0.02310
Br933      Br  0.59667207  0.32868264  0.00098075    -0.02010
H934        H  0.60996623  0.33898403  0.10725478     0.10150
H935        H  0.64007846  0.41700327  0.01392200     0.08170
Br936      Br  0.65099506  0.42863203  0.12073542    -0.02440
C937        C  0.51342528  0.63245856  0.72843857    -0.09070
C938        C  0.52667437  0.62268726  0.68616306     0.07130
C939        C  0.51265929  0.61160654  0.64556660    -0.02840
C940        C  0.48560687  0.61104197  0.64718076    -0.07290
C941        C  0.47207060  0.62137071  0.68906418     0.06240
C942        C  0.48643835  0.63197196  0.73039774    -0.02310
Br943      Br  0.47113528  0.64500723  0.79218969    -0.02010
H944        H  0.52420480  0.64051435  0.76029085     0.10150
H945        H  0.47515377  0.60251475  0.61542006     0.08170
Br946      Br  0.52967329  0.59551091  0.58890561    -0.02440
C947        C  0.65025189  0.51328827  0.73655525    -0.09070
C948        C  0.62611429  0.52390168  0.72435482     0.07130
C949        C  0.60350165  0.50961554  0.73557060    -0.02840
C950        C  0.60530486  0.48527342  0.75878893    -0.07290
C951        C  0.62943735  0.47463485  0.77111747     0.06240
C952        C  0.65207539  0.48897171  0.75995381    -0.02310
Br953      Br  0.68587072  0.47712302  0.77901898    -0.02010
H954        H  0.66773494  0.52440584  0.72973331     0.10150
H955        H  0.58777411  0.47426589  0.76580343     0.08170
Br956      Br  0.56974070  0.52193070  0.71753068    -0.02440
C957        C  0.51456378  0.64411775  0.16100500    -0.09070
C958        C  0.52733188  0.62231444  0.18018127     0.07130
C959        C  0.51243151  0.60116085  0.19783260    -0.02840
C960        C  0.48547566  0.60264167  0.19791830    -0.07290
C961        C  0.47262895  0.62471972  0.17984833     0.06240
C962        C  0.48759880  0.64549602  0.16053703    -0.02310
Br963      Br  0.47316554  0.67699411  0.13527141    -0.02010
H964        H  0.52564666  0.66057842  0.14737661     0.10150
H965        H  0.47447567  0.58616554  0.21171147     0.08170
Br966      Br  0.52727565  0.56903395  0.21944940    -0.02440
C967        C  0.63419902  0.64311773  0.96770713    -0.09070
C968        C  0.62799370  0.61929699  0.99098111     0.07130
C969        C  0.62449773  0.59722357  0.95991229    -0.02840
C970        C  0.62670000  0.59944269  0.90691937    -0.07290
C971        C  0.63264507  0.62326542  0.88372675     0.06240
C972        C  0.63666519  0.64522233  0.91461555    -0.02310
Br973      Br  0.64353926  0.67879553  0.88620893    -0.02010
H974        H  0.63708458  0.66027368  0.99094381     0.10150
H975        H  0.62329624  0.58244564  0.88346125     0.08170
Br976      Br  0.61480757  0.56395333  0.98669872    -0.02440
C977        C  0.60676005  0.62962650  0.40858866    -0.09070
C978        C  0.63091748  0.62791096  0.38413439     0.07130
C979        C  0.65322430  0.62383533  0.41424714    -0.02840
C980        C  0.65077503  0.62074832  0.46725806    -0.07290
C981        C  0.62650473  0.62215675  0.49108235     0.06240
C982        C  0.60444410  0.62693922  0.46133461    -0.02310
Br983      Br  0.57044807  0.62849412  0.49035659    -0.02010
H984        H  0.58935263  0.63272053  0.38640821     0.10150
H985        H  0.66794429  0.61753004  0.49009825     0.08170
Br986      Br  0.68727281  0.62109141  0.38568931    -0.02440
C987        C  0.64812544  0.51007814  0.22318405    -0.09070
C988        C  0.62624048  0.52494735  0.23449580     0.07130
C989        C  0.60704134  0.51411050  0.26679214    -0.02840
C990        C  0.60974555  0.48892734  0.28543616    -0.07290
C991        C  0.63142239  0.47389202  0.27355837     0.06240
C992        C  0.65112000  0.48506736  0.24281591    -0.02310
Br993      Br  0.68340816  0.46837598  0.22782589    -0.02010
H994        H  0.66348189  0.51823301  0.20003495     0.10150
H995        H  0.59437927  0.48089705  0.30871891     0.08170
Br996      Br  0.57600792  0.53172738  0.28654453    -0.02440
C997        C  0.98597898  0.64223173  0.54784165    -0.09070
C998        C  0.97283770  0.62013180  0.56572642     0.07130
C999        C  0.98762542  0.59892137  0.58319717    -0.02840
C1000       C  0.01467270  0.60026889  0.58227448    -0.07290
C1001       C  0.02779376  0.62226701  0.56379889     0.06240
C1002       C  0.01298031  0.64355311  0.54671763    -0.02310
Br1003     Br  0.02774660  0.67557756  0.52278503    -0.02010
H1004       H  0.97516626  0.65885813  0.53470386     0.10150
H1005       H  0.02551458  0.58361219  0.59515778     0.08170
Br1006     Br  0.97269518  0.56682452  0.60617008    -0.02440
C1007       C  0.77036059  0.62624833  0.65867190    -0.09070
C1008       C  0.77501585  0.62347397  0.60589565     0.07130
C1009       C  0.75377266  0.61981155  0.57287171    -0.02840
C1010       C  0.72871174  0.61871469  0.59295705    -0.07290
C1011       C  0.72412422  0.62149682  0.64567626     0.06240
C1012       C  0.74528405  0.62527612  0.67866239    -0.02310
Br1013     Br  0.74131362  0.62748118  0.75140243    -0.02010
H1014       H  0.78641458  0.62876133  0.68486236     0.10150
H1015       H  0.71258288  0.61617858  0.56693439     0.08170
Br1016     Br  0.75738143  0.61794323  0.49999067    -0.02440
C1017       C  0.98513658  0.59738843  0.06668573    -0.09070
C1018       C  0.97219382  0.62121573  0.06851342     0.07130
C1019       C  0.98687249  0.64431710  0.07019542    -0.02840
C1020       C  0.01389892  0.64326432  0.06898591    -0.07290
C1021       C  0.02686948  0.61946817  0.06646112     0.06240
C1022       C  0.01220136  0.59634004  0.06518206    -0.02310
Br1023     Br  0.02786930  0.56297965  0.05653731    -0.02010
H1024       H  0.97412043  0.57950933  0.06455527     0.10150
H1025       H  0.02487443  0.66118703  0.07043801     0.08170
Br1026     Br  0.97116093  0.67778845  0.07680615    -0.02440
C1027       C  0.87724653  0.60030850  0.84363073    -0.09070
C1028       C  0.87140934  0.62411411  0.86658918     0.07130
C1029       C  0.86838172  0.64615967  0.83623622    -0.02840
C1030       C  0.87089190  0.64418317  0.78338732    -0.07290
C1031       C  0.87653132  0.62033596  0.75940765     0.06240
C1032       C  0.87996944  0.59818893  0.79050550    -0.02310
Br1033     Br  0.88789631  0.56445144  0.76400528    -0.02010
H1034       H  0.87993483  0.58331907  0.86726751     0.10150
H1035       H  0.86820267  0.66158685  0.76101681     0.08170
Br1036     Br  0.86011829  0.67923572  0.86540610    -0.02440
C1037       C  0.89206560  0.60786743  0.28782528    -0.09070
C1038       C  0.87252710  0.61984727  0.25925898     0.07130
C1039       C  0.85183282  0.63191830  0.28547738    -0.02840
C1040       C  0.85114085  0.63191706  0.33868880    -0.07290
C1041       C  0.87106648  0.62081654  0.36695806     0.06240
C1042       C  0.89165667  0.60858387  0.34131838    -0.02310
Br1043     Br  0.91921338  0.59194602  0.37762179    -0.02010
H1044       H  0.90803015  0.59851817  0.26856273     0.10150
H1045       H  0.83524361  0.64128254  0.35819403     0.08170
Br1046     Br  0.82345753  0.64863835  0.25198284    -0.02440
C1047       C  0.76964196  0.62781043  0.15565957    -0.09070
C1048       C  0.77442223  0.62448023  0.10314669     0.07130
C1049       C  0.75336804  0.61887965  0.07062168    -0.02840
C1050       C  0.72838390  0.61683107  0.09100680    -0.07290
C1051       C  0.72372657  0.62049182  0.14350930     0.06240
C1052       C  0.74473793  0.62590852  0.17597335    -0.02310
Br1053     Br  0.74097655  0.62924641  0.24864709    -0.02010
H1054       H  0.78551772  0.63140122  0.18149579     0.10150
H1055       H  0.71236285  0.61296059  0.06535803     0.08170
Br1056     Br  0.75705648  0.61537961  0.99800576    -0.02440
C1057       C  0.98674041  0.36471666  0.89307866    -0.09070
C1058       C  0.97380947  0.37526170  0.93544876     0.07130
C1059       C  0.98872072  0.38522786  0.97644555    -0.02840
C1060       C  0.01560986  0.38471146  0.97387313    -0.07290
C1061       C  0.02862003  0.37435098  0.93147913     0.06240
C1062       C  0.01377627  0.36417425  0.89061723    -0.02310
Br1063     Br  0.02857043  0.34996491  0.82945661    -0.02010
H1064       H  0.97576890  0.35703669  0.86115963     0.10150
H1065       H  0.02642614  0.39233979  0.00604690     0.08170
Br1066     Br  0.97446951  0.39907418  0.03862818    -0.02440
C1067       C  0.77089434  0.38758262  0.84523132    -0.09070
C1068       C  0.77612380  0.38052251  0.89611090     0.07130
C1069       C  0.75546266  0.37201567  0.92695395    -0.02840
C1070       C  0.73045165  0.37064538  0.90660534    -0.07290
C1071       C  0.72519041  0.37758613  0.85554860     0.06240
C1072       C  0.74591957  0.38610973  0.82472567    -0.02310
Br1073     Br  0.74213829  0.39475682  0.75379232    -0.02010
H1074       H  0.78651895  0.39377260  0.82059976     0.10150
H1075       H  0.71489869  0.36441272  0.93146316     0.08170
Br1076     Br  0.75962809  0.36331639  0.99776295    -0.02440
C1077       C  0.85532112  0.49224014  0.96351535    -0.09070
C1078       C  0.87524036  0.47620070  0.98103474     0.07130
C1079       C  0.89252655  0.48614907  0.01850266    -0.02840
C1080       C  0.88936032  0.51126901  0.03735372    -0.07290
C1081       C  0.86942890  0.52733938  0.01990084     0.06240
C1082       C  0.85217986  0.51740150  0.98228763    -0.02310
Br1083     Br  0.82351125  0.53625449  0.95407615    -0.02010
H1084       H  0.84167855  0.48505103  0.93538418     0.10150
H1085       H  0.90304461  0.51839865  0.06545834     0.08170
Br1086     Br  0.92156873  0.46745379  0.04566813    -0.02440
C1087       C  0.98479583  0.35560590  0.41061782    -0.09070
C1088       C  0.97221874  0.37693331  0.43229696     0.07130
C1089       C  0.98699670  0.39704030  0.45391324    -0.02840
C1090       C  0.01396536  0.39578986  0.45308307    -0.07290
C1091       C  0.02685634  0.37457385  0.43105672     0.06240
C1092       C  0.01186425  0.35425913  0.40957204    -0.02310
Br1093     Br  0.02669184  0.32344456  0.38099544    -0.02010
H1094       H  0.97347009  0.33983106  0.39466763     0.10150
H1095       H  0.02489436  0.41152156  0.47020785     0.08170
Br1096     Br  0.97122592  0.42567573  0.48836651    -0.02440
C1097       C  0.85376124  0.38963381  0.66007389    -0.09070
C1098       C  0.87270415  0.37541490  0.63374206     0.07130
C1099       C  0.89318609  0.36433559  0.66228581    -0.02840
C1100       C  0.89403013  0.36750299  0.71521747    -0.07290
C1101       C  0.87506906  0.38160979  0.74128213     0.06240
C1102       C  0.85474775  0.39283032  0.71306510    -0.02310
Br1103     Br  0.82678030  0.41140435  0.74414743    -0.02010
H1104       H  0.83791726  0.39841291  0.63942812     0.10150
H1105       H  0.90972845  0.35870568  0.73631819     0.08170
Br1106     Br  0.92079901  0.34424964  0.63335643    -0.02440
C1107       C  0.86232054  0.35866760  0.21670771    -0.09070
C1108       C  0.87441489  0.38004806  0.24094042     0.07130
C1109       C  0.88415149  0.40027199  0.21004596    -0.02840
C1110       C  0.88197952  0.39847066  0.15691495    -0.07290
C1111       C  0.87011853  0.37699630  0.13320140     0.06240
C1112       C  0.86010900  0.35700970  0.16368304    -0.02310
Br1113     Br  0.84493699  0.32612562  0.13537867    -0.02010
H1114       H  0.85459204  0.34276408  0.23897233     0.10150
H1115       H  0.88973626  0.41406926  0.13378733     0.08170
Br1116     Br  0.90080748  0.43082665  0.23650353    -0.02440
C1117       C  0.76598658  0.35472821  0.36773073    -0.09070
C1118       C  0.77509585  0.37605885  0.39632940     0.07130
C1119       C  0.75878080  0.39776336  0.40233230    -0.02840
C1120       C  0.73415415  0.39767338  0.37973031    -0.07290
C1121       C  0.72538953  0.37627113  0.35138994     0.06240
C1122       C  0.74143609  0.35467221  0.34568321    -0.02310
Br1123     Br  0.73064661  0.32473947  0.30748705    -0.02010
H1124       H  0.77805548  0.33785917  0.36230587     0.10150
H1125       H  0.72156950  0.41415994  0.38517782     0.08170
Br1126     Br  0.76899809  0.42837638  0.43905111    -0.02440
C1127       C  0.84793696  0.48479041  0.49959492    -0.09070
C1128       C  0.87088414  0.47450899  0.47911660     0.07130
C1129       C  0.89354082  0.49001423  0.48053837    -0.02840
C1130       C  0.89288307  0.51476549  0.50279525    -0.07290
C1131       C  0.86988392  0.52485902  0.52284952     0.06240
C1132       C  0.84723063  0.50967780  0.52074897    -0.02310
Br1133     Br  0.81499737  0.52163210  0.54814656    -0.02010
H1134       H  0.83030826  0.47336123  0.49931802     0.10150
H1135       H  0.91032338  0.52649163  0.50323897     0.08170
Br1136     Br  0.92618786  0.47865054  0.45435163    -0.02440
C1137       C  0.12744065  0.26524375  0.89710921    -0.09070
C1138       C  0.12935708  0.27867557  0.94357073     0.07130
C1139       C  0.12948688  0.26457867  0.98968931    -0.02840
C1140       C  0.12791325  0.23746807  0.98844271    -0.07290
C1141       C  0.12660514  0.22409202  0.94176135     0.06240
C1142       C  0.12620520  0.23827152  0.89577946    -0.02310
Br1143     Br  0.12254368  0.22209472  0.82996370    -0.02010
H1144       H  0.12699863  0.27582515  0.86140963     0.10150
H1145       H  0.12805126  0.22678448  0.02402250     0.08170
Br1146     Br  0.13030101  0.28126427  0.05523833    -0.02440
C1147       C  0.13655953  0.26437199  0.48430091    -0.09070
C1148       C  0.13012436  0.27728427  0.43880103     0.07130
C1149       C  0.12405910  0.26237334  0.39507604    -0.02840
C1150       C  0.12437994  0.23538347  0.39766717    -0.07290
C1151       C  0.13066640  0.22239225  0.44307622     0.06240
C1152       C  0.13669142  0.23723016  0.48694129    -0.02310
Br1153     Br  0.14353725  0.22190075  0.55231133    -0.02010
H1154       H  0.14098629  0.27545384  0.51840504     0.10150
H1155       H  0.11997382  0.22444253  0.36337207     0.08170
Br1156     Br  0.11653381  0.27721308  0.32949958    -0.02440
C1157       C  0.11118548  0.10371689  0.71481663    -0.09070
C1158       C  0.12767393  0.11997210  0.74286582     0.07130
C1159       C  0.14546797  0.13596115  0.71602100    -0.02840
C1160       C  0.14545488  0.13626714  0.66271046    -0.07290
C1161       C  0.12832146  0.12074169  0.63459316     0.06240
C1162       C  0.11139764  0.10379106  0.66138933    -0.02310
Br1163     Br  0.08868034  0.07922807  0.62862875    -0.02010
H1164       H  0.09781300  0.09098686  0.73452987     0.10150
H1165       H  0.15891246  0.14896357  0.64313342     0.08170
Br1166     Br  0.17139251  0.15721815  0.74850805    -0.02440
C1167       C  0.12474233  0.14401122  0.21714682    -0.09070
C1168       C  0.12651583  0.11965971  0.24113208     0.07130
C1169       C  0.13089199  0.09749737  0.21047019    -0.02840
C1170       C  0.13371952  0.10021345  0.15759932    -0.07290
C1171       C  0.13168867  0.12451649  0.13421578     0.06240
C1172       C  0.12714673  0.14653529  0.16433145    -0.02310
Br1173     Br  0.12524851  0.18063162  0.13537715    -0.02010
H1174       H  0.12178277  0.16139419  0.23955111     0.10150
H1175       H  0.13663305  0.08309669  0.13433306     0.08170
Br1176     Br  0.13169317  0.06280968  0.23690206    -0.02440
C1177       C  0.39448137  0.26345194  0.81914705    -0.09070
C1178       C  0.37091885  0.27651281  0.81294856     0.07130
C1179       C  0.34806774  0.26172278  0.80637114    -0.02840
C1180       C  0.34923355  0.23460708  0.80573960    -0.07290
C1181       C  0.37277789  0.22156581  0.81230188     0.06240
C1182       C  0.39562920  0.23634981  0.81866511    -0.02310
Br1183     Br  0.42924289  0.22089401  0.82378816    -0.02010
H1184       H  0.41226293  0.27441224  0.82365412     0.10150
H1185       H  0.33145045  0.22362183  0.80149711     0.08170
Br1186     Br  0.31438974  0.27710616  0.80205075    -0.02440
C1187       C  0.23090234  0.12955866  0.84332633    -0.09070
C1188       C  0.22592681  0.12403154  0.89515038     0.07130
C1189       C  0.24683959  0.11703482  0.92677154    -0.02840
C1190       C  0.27177586  0.11550720  0.90624380    -0.07290
C1191       C  0.27669090  0.12104106  0.85447091     0.06240
C1192       C  0.25586582  0.12814335  0.82290044    -0.02310
Br1193     Br  0.25987116  0.13456041  0.75113343    -0.02010
H1194       H  0.21515093  0.13457974  0.81801615     0.10150
H1195       H  0.28760244  0.11044159  0.93141131     0.08170
Br1196     Br  0.24319648  0.11079228  0.99869881    -0.02440
C1197       C  0.39601408  0.23818774  0.29924426    -0.09070
C1198       C  0.37289856  0.22431369  0.30629842     0.07130
C1199       C  0.34949163  0.23800731  0.31173060    -0.02840
C1200       C  0.34964550  0.26507013  0.31073745    -0.07290
C1201       C  0.37286295  0.27892472  0.30554182     0.06240
C1202       C  0.39621681  0.26528081  0.29942217    -0.02310
Br1203     Br  0.42877899  0.28259492  0.28948414    -0.02010
H1204       H  0.41409253  0.22791939  0.29478293     0.10150
H1205       H  0.33158625  0.27536568  0.31527092     0.08170
Br1206     Br  0.31659181  0.22094329  0.31890888    -0.02440
C1207       C  0.39186687  0.11076565  0.59205355    -0.09070
C1208       C  0.37071014  0.12268184  0.61674379     0.07130
C1209       C  0.35050549  0.13257602  0.58613717    -0.02840
C1210       C  0.35218200  0.13085730  0.53290965    -0.07290
C1211       C  0.37346984  0.11926010  0.50872165     0.06240
C1212       C  0.39336913  0.10897079  0.53888061    -0.02310
Br1213     Br  0.42394397  0.09400112  0.50988247    -0.02010
H1214       H  0.40772251  0.10292411  0.61408326     0.10150
H1215       H  0.33662627  0.13876288  0.51006608     0.08170
Br1216     Br  0.32005843  0.14880736  0.61307540    -0.02440
C1217       C  0.34920019  0.12039830  0.03257917    -0.09070
C1218       C  0.37359358  0.11764617  0.01000801     0.07130
C1219       C  0.39582663  0.11804691  0.04071711    -0.02840
C1220       C  0.39346124  0.12124623  0.09344539    -0.07290
C1221       C  0.36908131  0.12431361  0.11653405     0.06240
C1222       C  0.34673659  0.12394289  0.08536023    -0.02310
Br1223     Br  0.31259219  0.13010438  0.11134198    -0.02010
H1224       H  0.33204738  0.12072310  0.00877027     0.10150
H1225       H  0.41084894  0.12103528  0.11654043     0.08170
Br1226     Br  0.42970531  0.11349264  0.01231151    -0.02440
C1227       C  0.26991447  0.12911158  0.40935669    -0.09070
C1228       C  0.27450869  0.12512843  0.35685981     0.07130
C1229       C  0.25331716  0.12014109  0.32442278    -0.02840
C1230       C  0.22836239  0.11899518  0.34482729    -0.07290
C1231       C  0.22379695  0.12289239  0.39731413     0.06240
C1232       C  0.24493795  0.12800058  0.42971749    -0.02310
Br1233     Br  0.24128628  0.13189477  0.50227247    -0.02010
H1234       H  0.28595940  0.13264109  0.43513134     0.10150
H1235       H  0.21229114  0.11541488  0.31913854     0.08170
Br1236     Br  0.25677718  0.11625375  0.25178962    -0.02440
C1237       C  0.34977837  0.76355396  0.69411383    -0.09070
C1238       C  0.37326955  0.77707974  0.69031973     0.07130
C1239       C  0.39664565  0.76323905  0.68790372    -0.02840
C1240       C  0.39620612  0.73621291  0.68985817    -0.07290
C1241       C  0.37270634  0.72268324  0.69329517     0.06240
C1242       C  0.34934133  0.73651709  0.69580759    -0.02310
Br1243     Br  0.31653779  0.71948616  0.70424720    -0.02010
H1244       H  0.33174232  0.77407618  0.69639275     0.10150
H1245       H  0.41421663  0.72568557  0.68692788     0.08170
Br1246     Br  0.42939471  0.78012997  0.67740495    -0.02440
C1247       C  0.39408804  0.98575158  0.73289984    -0.09070
C1248       C  0.36979101  0.97377816  0.72799134     0.07130
C1249       C  0.34766413  0.98697815  0.74575505    -0.02840
C1250       C  0.35022427  0.01147729  0.76821935    -0.07290
C1251       C  0.37452027  0.02344032  0.77305620     0.06240
C1252       C  0.39663620  0.01024726  0.75531579    -0.02310
Br1253     Br  0.43102662  0.02392372  0.76334781    -0.02010
H1254       H  0.41134155  0.97564039  0.72079649     0.10150
H1255       H  0.33299466  0.02161732  0.78034891     0.08170
Br1256     Br  0.31324916  0.97337442  0.73764903    -0.02440
C1257       C  0.39300326  0.76484151  0.17436977    -0.09070
C1258       C  0.37110317  0.77815208  0.19070196     0.07130
C1259       C  0.34891835  0.76412624  0.20516193    -0.02840
C1260       C  0.34916799  0.73696762  0.20393974    -0.07290
C1261       C  0.37109316  0.72338526  0.18688092     0.06240
C1262       C  0.39311654  0.73785422  0.17151862    -0.02310
Br1263     Br  0.42441299  0.72277407  0.14679309    -0.02010
H1264       H  0.41003192  0.77561144  0.16261680     0.10150
H1265       H  0.33198045  0.72647902  0.21563342     0.08170
Br1266     Br  0.31818753  0.78126743  0.22786318    -0.02440
C1267       C  0.39025987  0.86099713  0.96572632    -0.09070
C1268       C  0.37765470  0.88114813  0.99126789     0.07130
C1269       C  0.36234220  0.89850653  0.96325993    -0.02840
C1270       C  0.35994433  0.89555005  0.91031233    -0.07290
C1271       C  0.37267946  0.87542597  0.88433963     0.06240
C1272       C  0.38809377  0.85804300  0.91282604    -0.02310
Br1273     Br  0.40546233  0.82882869  0.88318006    -0.02010
H1274       H  0.40148874  0.84712725  0.98732022     0.10150
H1275       H  0.34809561  0.90914216  0.88938101     0.08170
Br1276     Br  0.34279891  0.92526676  0.99609812    -0.02440
C1277       C  0.35077660  0.87082040  0.41034293    -0.09070
C1278       C  0.37312643  0.87671096  0.38269078     0.07130
C1279       C  0.39570595  0.88448382  0.40927165    -0.02840
C1280       C  0.39537034  0.88636862  0.46269915    -0.07290
C1281       C  0.37309040  0.87980476  0.49036598     0.06240
C1282       C  0.35069604  0.87183903  0.46350566    -0.02310
Br1283     Br  0.31902703  0.86242862  0.49654481    -0.02010
H1284       H  0.33332708  0.86489266  0.39045806     0.10150
H1285       H  0.41276244  0.89229657  0.48274293     0.08170
Br1286     Br  0.42727141  0.89352295  0.37493532    -0.02440
C1287       C  0.36165476  0.99478011  0.19883616    -0.09070
C1288       C  0.37293347  0.97558364  0.22889165     0.07130
C1289       C  0.38342649  0.98230930  0.27676619    -0.02840
C1290       C  0.38215057  0.00793635  0.29431470    -0.07290
C1291       C  0.37019035  0.02730060  0.26502931     0.06240
C1292       C  0.36015950  0.02041673  0.21616967    -0.02310
Br1293     Br  0.34494626  0.04470021  0.16940509    -0.02010
H1294       H  0.35357969  0.98970580  0.16192623     0.10150
H1295       H  0.39029274  0.01262448  0.33133656     0.08170
Br1296     Br  0.40001260  0.95706349  0.31911927    -0.02440
C1297       C  0.13210421  0.76516069  0.51169592    -0.09070
C1298       C  0.13055388  0.77831889  0.55859741     0.07130
C1299       C  0.12864484  0.76380342  0.60408315    -0.02840
C1300       C  0.12791000  0.73680718  0.60198238    -0.07290
C1301       C  0.12872428  0.72360695  0.55517293     0.06240
C1302       C  0.13099245  0.73800614  0.50961748    -0.02310
Br1303     Br  0.13396191  0.72165245  0.44404154    -0.02010
H1304       H  0.13373739  0.77603999  0.47649429     0.10150
H1305       H  0.12645295  0.72602218  0.63734548     0.08170
Br1306     Br  0.12825689  0.77953179  0.67063817    -0.02440
C1307       C  0.10436882  0.01068404  0.47281686    -0.09070
C1308       C  0.12699757  0.02533934  0.47737669     0.07130
C1309       C  0.14816131  0.01524564  0.50453907    -0.02840
C1310       C  0.14644563  0.99047037  0.52620186    -0.07290
C1311       C  0.12379922  0.97548385  0.52104876     0.06240
C1312       C  0.10255522  0.98600542  0.49393833    -0.02310
Br1313     Br  0.06979752  0.96874493  0.48574532    -0.02010
H1314       H  0.08775717  0.01873689  0.45331183     0.10150
H1315       H  0.16297332  0.98280082  0.54649990     0.08170
Br1316     Br  0.17908301  0.03519083  0.51543724    -0.02440
C1317       C  0.22636115  0.88054063  0.66271390    -0.09070
C1318       C  0.22192170  0.88064699  0.60959153     0.07130
C1319       C  0.24319941  0.87998499  0.57636906    -0.02840
C1320       C  0.26821006  0.87889548  0.59640408    -0.07290
C1321       C  0.27279222  0.87811111  0.64932781     0.06240
C1322       C  0.25150402  0.87912171  0.68274533    -0.02310
Br1323     Br  0.25542012  0.87697680  0.75546976    -0.02010
H1324       H  0.21013142  0.88096177  0.68880241     0.10150
H1325       H  0.28428403  0.87911487  0.57036764     0.08170
Br1326     Br  0.23941498  0.88215185  0.50356383    -0.02440
C1327       C  0.12870666  0.76399163  0.01223582    -0.09070
C1328       C  0.12397132  0.77737869  0.05794134     0.07130
C1329       C  0.11885179  0.76329846  0.10284904    -0.02840
C1330       C  0.11907566  0.73628696  0.10180531    -0.07290
C1331       C  0.12398177  0.72282468  0.05633412     0.06240
C1332       C  0.12890800  0.73684660  0.01119247    -0.02310
Br1333     Br  0.13796824  0.71994294  0.94843084    -0.02010
H1334       H  0.13288316  0.77467324  0.97760718     0.10150
H1335       H  0.11494906  0.72570511  0.13659390     0.08170
Br1336     Br  0.10970986  0.77994233  0.16583755    -0.02440
C1337       C  0.13570531  0.89999216  0.78652200    -0.09070
C1338       C  0.12292064  0.87999298  0.75982168     0.07130
C1339       C  0.11262327  0.85889369  0.78805038    -0.02840
C1340       C  0.11583100  0.85805379  0.84089308    -0.07290
C1341       C  0.12887653  0.87782432  0.86720691     0.06240
C1342       C  0.13861245  0.89917990  0.83959406    -0.02310
Br1343     Br  0.15433750  0.92874283  0.87203570    -0.02010
H1344       H  0.14356542  0.91647444  0.76612370     0.10150
H1345       H  0.10786968  0.84174701  0.86174601     0.08170
Br1346     Br  0.09321685  0.83059597  0.75888385    -0.02440
C1347       C  0.11821273  0.89996968  0.28797357    -0.09070
C1348       C  0.12586327  0.87819157  0.25968047     0.07130
C1349       C  0.13587580  0.85642949  0.28663710    -0.02840
C1350       C  0.13770696  0.85698468  0.33983678    -0.07290
C1351       C  0.12952260  0.87848618  0.36759078     0.06240
C1352       C  0.11997956  0.90028799  0.34127175    -0.02310
Br1353     Br  0.11035286  0.93161489  0.37591408    -0.02010
H1354       H  0.11104058  0.91702149  0.26865789     0.10150
H1355       H  0.14485048  0.84010869  0.35986038     0.08170
Br1356     Br  0.14711883  0.82461098  0.25553233    -0.02440
C1357       C  0.10688813  0.01571037  0.99925299    -0.09070
C1358       C  0.12988716  0.02590463  0.97894799     0.07130
C1359       C  0.15256071  0.01100401  0.98159500    -0.02840
C1360       C  0.15187131  0.98631360  0.00343996    -0.07290
C1361       C  0.12894303  0.97593975  0.02418179     0.06240
C1362       C  0.10627835  0.99115709  0.02230035    -0.02310
Br1363     Br  0.07375304  0.97965664  0.04915179    -0.02010
H1364       H  0.08944303  0.02723527  0.99852464     0.10150
H1365       H  0.16950787  0.97508777  0.00399930     0.08170
Br1366     Br  0.18486870  0.02306606  0.95419587    -0.02440
C1367       C  0.27120309  0.88108480  0.09083403    -0.09070
C1368       C  0.27589972  0.88129996  0.14387126     0.07130
C1369       C  0.25463744  0.88161438  0.17745528    -0.02840
C1370       C  0.22945772  0.88077873  0.15771476    -0.07290
C1371       C  0.22483423  0.88004832  0.10473521     0.06240
C1372       C  0.24602883  0.88062430  0.07114784    -0.02310
Br1373     Br  0.24187999  0.87867416  0.99840100    -0.02010
H1374       H  0.28728766  0.88087067  0.06435137     0.10150
H1375       H  0.21331339  0.88044949  0.18405877     0.08170
Br1376     Br  0.25858280  0.88121802  0.25034324    -0.02440
C1377       C  0.51538243  0.12962515  0.77738119    -0.09070
C1378       C  0.52860216  0.11992166  0.82025742     0.07130
C1379       C  0.51404471  0.11201634  0.86332243    -0.02840
C1380       C  0.48701146  0.11398126  0.86250955    -0.07290
C1381       C  0.47412130  0.12330370  0.81922254     0.06240
C1382       C  0.48849313  0.13124041  0.77651879    -0.02310
Br1383     Br  0.47231437  0.14544236  0.71679419    -0.02010
H1384       H  0.52598544  0.13592754  0.74393866     0.10150
H1385       H  0.47596288  0.10779796  0.89549035     0.08170
Br1386     Br  0.52952779  0.09923953  0.92495664    -0.02440
C1387       C  0.64911589  0.23598529  0.80325426    -0.09070
C1388       C  0.62559413  0.22235066  0.80469939     0.07130
C1389       C  0.60218756  0.23624071  0.80564129    -0.02840
C1390       C  0.60266718  0.26332296  0.80476990    -0.07290
C1391       C  0.62620177  0.27693200  0.80398757     0.06240
C1392       C  0.64958596  0.26305889  0.80269089    -0.02310
Br1393     Br  0.68258182  0.28007764  0.79761083    -0.02010
H1394       H  0.66721044  0.22551428  0.80225056     0.10150
H1395       H  0.58460131  0.27381678  0.80660629     0.08170
Br1396     Br  0.56921352  0.21939413  0.81314040    -0.02440
C1397       C  0.51385846  0.14225749  0.30742274    -0.09070
C1398       C  0.52656587  0.11906038  0.31963312     0.07130
C1399       C  0.51141856  0.09714088  0.33230535    -0.02840
C1400       C  0.48438258  0.09870724  0.33171769    -0.07290
C1401       C  0.47171126  0.12176373  0.31846939     0.06240
C1402       C  0.48686711  0.14387225  0.30699037    -0.02310
Br1403     Br  0.47233915  0.17730784  0.29277059    -0.02010
H1404       H  0.52502567  0.15946818  0.29843709     0.10150
H1405       H  0.47318448  0.08148123  0.34041521     0.08170
Br1406     Br  0.52599460  0.06396748  0.34743671    -0.02440
C1407       C  0.60260545  0.23461114  0.30747416    -0.09070
C1408       C  0.62602719  0.22137566  0.30235490     0.07130
C1409       C  0.64935153  0.23555820  0.29934316    -0.02840
C1410       C  0.64885644  0.26262890  0.30127690    -0.07290
C1411       C  0.62538785  0.27583951  0.30657517     0.06240
C1412       C  0.60219312  0.26160229  0.31050955    -0.02310
Br1413     Br  0.56995679  0.27777446  0.32624343    -0.02010
H1414       H  0.58468117  0.22385301  0.31161351     0.10150
H1415       H  0.66683102  0.27341051  0.29844282     0.08170
Br1416     Br  0.68220808  0.21896694  0.29090289    -0.02440
C1417       C  0.61394180  0.10271137  0.53854017    -0.09070
C1418       C  0.62552232  0.12247782  0.50939108     0.07130
C1419       C  0.63915681  0.14261701  0.53550921    -0.02840
C1420       C  0.64089345  0.14236109  0.58870539    -0.07290
C1421       C  0.62918712  0.12276849  0.61708311     0.06240
C1422       C  0.61553295  0.10287239  0.59194046    -0.02310
Br1423     Br  0.59897783  0.07548231  0.62928683    -0.02010
H1424       H  0.60345245  0.08713767  0.51989010     0.10150
H1425       H  0.65122824  0.15779379  0.60821397     0.08170
Br1426     Br  0.65647720  0.17129949  0.50298267    -0.02440
C1427       C  0.64287798  0.14065362  0.08962858    -0.09070
C1428       C  0.62914570  0.12213457  0.11734654     0.07130
C1429       C  0.61434469  0.10334679  0.09141508    -0.02840
C1430       C  0.61352772  0.10327542  0.03796440    -0.07290
C1431       C  0.62699967  0.12208633  0.00954264     0.06240
C1432       C  0.64185605  0.14104888  0.03635391    -0.02310
Br1433     Br  0.66179837  0.16815566  0.00448047    -0.02010
H1434       H  0.65418408  0.15519508  0.10969220     0.10150
H1435       H  0.60207585  0.08860115  0.01868340     0.08170
Br1436     Br  0.59531693  0.07721962  0.12769516    -0.02440
C1437       C  0.01467240  0.10035242  0.95605436    -0.09070
C1438       C  0.02837020  0.12115471  0.93454175     0.07130
C1439       C  0.01462975  0.14192204  0.91295994    -0.02840
C1440       C  0.98753273  0.14177982  0.91360750    -0.07290
C1441       C  0.97384055  0.12101097  0.93526476     0.06240
C1442       C  0.98758351  0.10022951  0.95680480    -0.02310
Br1443     Br  0.97013263  0.07217578  0.99053133    -0.02010
H1444       H  0.02508383  0.08445747  0.97335398     0.10150
H1445       H  0.97711744  0.15782874  0.89688369     0.08170
Br1446     Br  0.03213765  0.17036050  0.88071936    -0.02440
C1447       C  0.89378034  0.26659203  0.95617261    -0.09070
C1448       C  0.87081506  0.27895593  0.94201440     0.07130
C1449       C  0.84910657  0.26393700  0.92856032    -0.02840
C1450       C  0.85069837  0.23689428  0.92910148    -0.07290
C1451       C  0.87368152  0.22431134  0.94339602     0.06240
C1452       C  0.89538409  0.23955121  0.95739192    -0.02310
Br1453     Br  0.92831126  0.22505393  0.97527095    -0.02010
H1454       H  0.91065124  0.27808750  0.96608961     0.10150
H1455       H  0.83386954  0.22565187  0.91792690     0.08170
Br1456     Br  0.81751446  0.27947447  0.90571344    -0.02440
C1457       C  0.75646821  0.11820420  0.92701958    -0.09070
C1458       C  0.77680493  0.11990564  0.89188252     0.07130
C1459       C  0.77098581  0.11977295  0.83902856    -0.02840
C1460       C  0.74525593  0.11979290  0.82252426    -0.07290
C1461       C  0.72493606  0.11980837  0.85775293     0.06240
C1462       C  0.73072124  0.11806868  0.91045432    -0.02310
Br1463     Br  0.70438611  0.11402616  0.96149420    -0.02010
H1464       H  0.76057755  0.11749346  0.96756894     0.10150
H1465       H  0.74112841  0.12034004  0.78196671     0.08170
Br1466     Br  0.79718414  0.11825014  0.78723774    -0.02440
C1467       C  0.98548001  0.13417353  0.39080707    -0.09070
C1468       C  0.97241131  0.12490880  0.43420171     0.07130
C1469       C  0.98709020  0.11629911  0.47645671    -0.02840
C1470       C  0.01397095  0.11674188  0.47409657    -0.07290
C1471       C  0.02710466  0.12578287  0.43068684     0.06240
C1472       C  0.01252103  0.13465656  0.38858372    -0.02310
Br1473     Br  0.02785367  0.14654715  0.32601208    -0.02010
H1474       H  0.97461447  0.14075735  0.35795069     0.10150
H1475       H  0.02470202  0.11024780  0.50720703     0.08170
Br1476     Br  0.97240722  0.10482822  0.54013375    -0.02440
C1477       C  0.85089521  0.23405631  0.41470379    -0.09070
C1478       C  0.86940666  0.22056603  0.44279750     0.07130
C1479       C  0.88835866  0.23433647  0.47018762    -0.02840
C1480       C  0.88863284  0.26142791  0.46905353    -0.07290
C1481       C  0.87036001  0.27529939  0.44017293     0.06240
C1482       C  0.85116558  0.26112531  0.41283857    -0.02310
Br1483     Br  0.82441172  0.27668131  0.37219156    -0.02010
H1484       H  0.83635996  0.22340221  0.39332375     0.10150
H1485       H  0.90353483  0.27161319  0.49026480     0.08170
Br1486     Br  0.91423537  0.21681820  0.50948198    -0.02440
C1487       C  0.89008911  0.10774692  0.65711221    -0.09070
C1488       C  0.87098983  0.12313356  0.63352949     0.07130
C1489       C  0.85405309  0.13736833  0.66489876    -0.02840
C1490       C  0.85670413  0.13614252  0.71794153    -0.07290
C1491       C  0.87578942  0.12079387  0.74138779     0.06240
C1492       C  0.89264260  0.10648862  0.71019959    -0.02310
Br1493     Br  0.92060646  0.08626276  0.73695042    -0.02010
H1494       H  0.90343410  0.09660350  0.63414558     0.10150
H1495       H  0.84358985  0.14745107  0.74109701     0.08170
Br1496     Br  0.82747481  0.15965666  0.63894302    -0.02440
C1497       C  0.88763522  0.13890122  0.21558421    -0.09070
C1498       C  0.87489826  0.11826337  0.24025563     0.07130
C1499       C  0.86036506  0.10059384  0.21014836    -0.02840
C1500       C  0.85874893  0.10413151  0.15727726    -0.07290
C1501       C  0.87147714  0.12479911  0.13298264     0.06240
C1502       C  0.88604185  0.14234667  0.16286137    -0.02310
Br1503     Br  0.90317236  0.17233018  0.13513319    -0.02010
H1504       H  0.89877030  0.15286134  0.23746671     0.10150
H1505       H  0.84775964  0.09026962  0.13483927     0.08170
Br1506     Br  0.84178000  0.07137060  0.23734867    -0.02440
C1507       C  0.75536774  0.12090559  0.42801317    -0.09070
C1508       C  0.77567606  0.12087526  0.39274952     0.07130
C1509       C  0.76985634  0.12122021  0.33995254    -0.02840
C1510       C  0.74409627  0.12117316  0.32346688    -0.07290
C1511       C  0.72374798  0.12117915  0.35872370     0.06240
C1512       C  0.72960679  0.12082418  0.41156741    -0.02310
Br1513     Br  0.70342282  0.11825445  0.46331288    -0.02010
H1514       H  0.75954700  0.12027018  0.46854505     0.10150
H1515       H  0.73996229  0.12186415  0.28292332     0.08170
Br1516     Br  0.79620784  0.12376786  0.28853467    -0.02440
C1517       C  0.85511863  0.76296289  0.52922935    -0.09070
C1518       C  0.87219354  0.77685601  0.56127218     0.07130
C1519       C  0.89051894  0.76266184  0.59046819    -0.02840
C1520       C  0.89119555  0.73567704  0.58703392    -0.07290
C1521       C  0.87408089  0.72217977  0.55538564     0.06240
C1522       C  0.85587534  0.73587905  0.52641150    -0.02310
Br1523     Br  0.83136552  0.71824177  0.48355328    -0.02010
H1524       H  0.84088125  0.77310612  0.50657216     0.10150
H1525       H  0.90500243  0.72504104  0.60993360     0.08170
Br1526     Br  0.91539715  0.77782267  0.63652478    -0.02440
C1527       C  0.98539963  0.89766475  0.57097337    -0.09070
C1528       C  0.97196019  0.87402682  0.57122546     0.07130
C1529       C  0.98590586  0.85064042  0.57214678    -0.02840
C1530       C  0.01292366  0.85128475  0.57263842    -0.07290
C1531       C  0.02632766  0.87494852  0.57151415     0.06240
C1532       C  0.01235432  0.89830230  0.57148871    -0.02310
Br1533     Br  0.02893912  0.93157236  0.57528674    -0.02010
H1534       H  0.97485666  0.91575192  0.57090921     0.10150
H1535       H  0.02350613  0.83322880  0.57206812     0.08170
Br1536     Br  0.96926070  0.81739623  0.56796774    -0.02440
C1537       C  0.84880085  0.98691308  0.51428585    -0.09070
C1538       C  0.87243474  0.97493754  0.52570350     0.07130
C1539       C  0.89574030  0.98812665  0.51483609    -0.02840
C1540       C  0.89511197  0.01253700  0.49231863    -0.07290
C1541       C  0.87160318  0.02435666  0.47981651     0.06240
C1542       C  0.84821937  0.01145640  0.49135608    -0.02310
Br1543     Br  0.81514682  0.02701456  0.47946879    -0.02010
H1544       H  0.83076981  0.97691732  0.52211834     0.10150
H1545       H  0.91321374  0.02251218  0.48491233     0.08170
Br1546     Br  0.92913452  0.97434273  0.53178234    -0.02440
C1547       C  0.88232634  0.76522670  0.10212517    -0.09070
C1548       C  0.87407679  0.77839667  0.05836918     0.08730
C1549       C  0.86680809  0.76429497  0.01455875    -0.02840
C1550       C  0.86798028  0.73722258  0.01505224    -0.07290
C1551       C  0.87607838  0.72407995  0.05903264     0.06240
C1552       C  0.88350131  0.73824315  0.10265763    -0.02310
Br1553     Br  0.89664657  0.72164000  0.16283296    -0.02010
H1554       H  0.88825086  0.77600871  0.13573756     0.10150
H1555       H  0.86192164  0.72639531  0.98159728     0.08170
Br1556     Br  0.85350180  0.78110322  0.95483284    -0.02440
C1557       C  0.01357391  0.85896388  0.08581871    -0.09070
C1558       C  0.02708639  0.88012603  0.06515702     0.07130
C1559       C  0.01311028  0.90094781  0.04443616    -0.02840
C1560       C  0.98606460  0.90083337  0.04615343    -0.07290
C1561       C  0.97255778  0.87976925  0.06699771     0.06240
C1562       C  0.98646521  0.85862710  0.08669873    -0.02310
Br1563     Br  0.96920190  0.82931537  0.11633215    -0.02010
H1564       H  0.02413239  0.84271776  0.10140689     0.10150
H1565       H  0.97551138  0.91687299  0.02971405     0.08170
Br1566     Br  0.03002021  0.92875973  0.00932291    -0.02440
C1567       C  0.85037363  0.88667781  0.78402576    -0.09070
C1568       C  0.87402596  0.88217547  0.75967191     0.07130
C1569       C  0.89574749  0.87540200  0.78894509    -0.02840
C1570       C  0.89351949  0.87323226  0.84183471    -0.07290
C1571       C  0.86977494  0.87744743  0.86673014     0.06240
C1572       C  0.84790979  0.88409614  0.83692145    -0.02310
Br1573     Br  0.81373570  0.88855908  0.86430261    -0.02010
H1574       H  0.83342211  0.89127265  0.76147948     0.10150
H1575       H  0.91067772  0.86847149  0.86355233     0.08170
Br1576     Br  0.92918058  0.86998693  0.75895413    -0.02440
C1577       C  0.85201563  0.86895720  0.33921630    -0.09070
C1578       C  0.87403941  0.87560076  0.36765505     0.07130
C1579       C  0.89651498  0.88414583  0.34099949    -0.02840
C1580       C  0.89599062  0.88672355  0.28781360    -0.07290
C1581       C  0.87394266  0.88003213  0.25980133     0.06240
C1582       C  0.85186427  0.87080187  0.28605844    -0.02310
Br1583     Br  0.82040487  0.86098152  0.25219874    -0.02010
H1584       H  0.83461304  0.86241959  0.35835304     0.10150
H1585       H  0.91328896  0.89304725  0.26800412     0.08170
Br1586     Br  0.92933298  0.89135359  0.37288973    -0.02440
C1587       C  0.89546221  0.01512414  0.99529579    -0.09070
C1588       C  0.87217391  0.02601752  0.97820459     0.07130
C1589       C  0.84910965  0.01164700  0.98330562    -0.02840
C1590       C  0.84957275  0.98700547  0.00525029    -0.07290
C1591       C  0.87273061  0.97604362  0.02307158     0.06240
C1592       C  0.89593156  0.99042230  0.01779176    -0.02310
Br1593     Br  0.92896630  0.97703937  0.03790155    -0.02010
H1594       H  0.91330150  0.02609939  0.99210495     0.10150
H1595       H  0.83159994  0.97622109  0.00801914     0.08170
Br1596     Br  0.81652070  0.02424817  0.95868064    -0.02440
C1597       C  0.64877799  0.76361683  0.66561614    -0.09070
C1598       C  0.62937174  0.77705024  0.69182511     0.07130
C1599       C  0.60992011  0.76300780  0.71742235    -0.02840
C1600       C  0.60996393  0.73585881  0.71617044    -0.07290
C1601       C  0.62933043  0.72242575  0.68981069     0.06240
C1602       C  0.64881849  0.73648251  0.66432049    -0.02310
Br1603     Br  0.67496853  0.71937838  0.62499758    -0.02010
H1604       H  0.66361898  0.77426892  0.64522816     0.10150
H1605       H  0.59492596  0.72520649  0.73598344     0.08170
Br1606     Br  0.58333325  0.78020746  0.75534570    -0.02440
C1607       C  0.51336606  0.89980554  0.68275396    -0.09070
C1608       C  0.52576322  0.87567736  0.68054362     0.07130
C1609       C  0.51063224  0.85292230  0.67849710    -0.02840
C1610       C  0.48364633  0.85463244  0.67882783    -0.07290
C1611       C  0.47122420  0.87875944  0.68063755     0.06240
C1612       C  0.48636178  0.90153576  0.68250456    -0.02310
Br1613     Br  0.47136837  0.93533658  0.68885851    -0.02010
H1614       H  0.52477326  0.91743777  0.68503996     0.10150
H1615       H  0.47226930  0.83694883  0.67803477     0.08170
Br1616     Br  0.52563958  0.81898978  0.67939224    -0.02440
C1617       C  0.64963675  0.98786054  0.72940017    -0.09070
C1618       C  0.62579843  0.97479427  0.72908664     0.07130
C1619       C  0.60400259  0.98722781  0.75042990    -0.02840
C1620       C  0.60647103  0.01197412  0.77189495    -0.07290
C1621       C  0.63031787  0.02505297  0.77235754     0.06240
C1622       C  0.65212230  0.01261979  0.75090637    -0.02310
Br1623     Br  0.68623883  0.02754757  0.75230472    -0.02010
H1624       H  0.66666841  0.97841927  0.71433195     0.10150
H1625       H  0.58939889  0.02137496  0.78687972     0.08170
Br1626     Br  0.56991282  0.97222976  0.74882180    -0.02440
C1627       C  0.76975621  0.87034529  0.65415268    -0.09070
C1628       C  0.77432832  0.87511626  0.60205613     0.07130
C1629       C  0.75324599  0.88056514  0.57005099    -0.02840
C1630       C  0.72820675  0.88160817  0.59051120    -0.07290
C1631       C  0.72352191  0.87698912  0.64281903     0.06240
C1632       C  0.74470449  0.87094976  0.67459266    -0.02310
Br1633     Br  0.74110403  0.86515773  0.74664363    -0.02010
H1634       H  0.78591403  0.86649268  0.67936464     0.10150
H1635       H  0.71226740  0.88614507  0.56524051     0.08170
Br1636     Br  0.75792548  0.88852348  0.49914027    -0.02440
C1637       C  0.60519877  0.76233324  0.19780598    -0.09070
C1638       C  0.62827559  0.77627942  0.19058309     0.07130
C1639       C  0.65167910  0.76258166  0.18494674    -0.02840
C1640       C  0.65154179  0.73548632  0.18602408    -0.07290
C1641       C  0.62834959  0.72159205  0.19154398     0.06240
C1642       C  0.60501525  0.73524415  0.19778969    -0.02310
Br1643     Br  0.57248554  0.71796069  0.20836280    -0.02010
H1644       H  0.58710451  0.77255092  0.20246675     0.10150
H1645       H  0.66959873  0.72519612  0.18142810     0.08170
Br1646     Br  0.68455981  0.77964218  0.17759793    -0.02440
C1647       C  0.51469546  0.90207280  0.18587953    -0.09070
C1648       C  0.52762434  0.87826368  0.18334816     0.07130
C1649       C  0.51301441  0.85518080  0.18022595    -0.02840
C1650       C  0.48598455  0.85624969  0.18021781    -0.07290
C1651       C  0.47302754  0.88005498  0.18302264     0.06240
C1652       C  0.48765749  0.90313293  0.18629910    -0.02310
Br1653     Br  0.47190966  0.93636672  0.19618513    -0.02010
H1654       H  0.52569707  0.91991964  0.18914957     0.10150
H1655       H  0.47500759  0.83836367  0.17752618     0.08170
Br1656     Br  0.52887529  0.82181683  0.17302495    -0.02440
C1657       C  0.64590748  0.88916740  0.96508834    -0.09070
C1658       C  0.62356138  0.88043565  0.99021919     0.07130
C1659       C  0.60370329  0.86855388  0.96190733    -0.02840
C1660       C  0.60610409  0.86608644  0.90894469    -0.07290
C1661       C  0.62846406  0.87474276  0.88351121     0.06240
C1662       C  0.64848635  0.88646741  0.91206665    -0.02310
Br1663     Br  0.67895167  0.90044361  0.88042995    -0.02010
H1664       H  0.66153859  0.89782922  0.98690881     0.10150
H1665       H  0.59044654  0.85725461  0.88746882     0.08170
Br1666     Br  0.57330298  0.85493018  0.99434845    -0.02440
C1667       C  0.63095871  0.89954388  0.40645774    -0.09070
C1668       C  0.63047511  0.87518992  0.38270064     0.07130
C1669       C  0.62726691  0.85286719  0.41267870    -0.02840
C1670       C  0.62462200  0.85514300  0.46562331    -0.07290
C1671       C  0.62487351  0.87952971  0.48989047     0.06240
C1672       C  0.62791688  0.90196919  0.45940658    -0.02310
Br1673     Br  0.62639393  0.93655969  0.48636801    -0.02010
H1674       H  0.63282635  0.91687364  0.38342079     0.10150
H1675       H  0.62273525  0.83759380  0.48795231     0.08170
Br1676     Br  0.62761152  0.81878750  0.38328532    -0.02440
C1677       C  0.60699413  0.98325572  0.25346283    -0.09070
C1678       C  0.62858968  0.97442140  0.22636840     0.07130
C1679       C  0.65042617  0.99055209  0.22219270    -0.02840
C1680       C  0.65030039  0.01521375  0.24429813    -0.07290
C1681       C  0.62875333  0.02435257  0.27182492     0.06240
C1682       C  0.60693589  0.00781315  0.27654707    -0.02310
Br1683     Br  0.57624536  0.01718037  0.31296149    -0.02010
H1684       H  0.59032801  0.97065590  0.25794976     0.10150
H1685       H  0.66730551  0.02732293  0.23974791     0.08170
Br1686     Br  0.68066619  0.97994848  0.18538990    -0.02440
C1687       C  0.72883281  0.87856787  0.08866798    -0.09070
C1688       C  0.72422327  0.88003528  0.14167211     0.07130
C1689       C  0.74541645  0.88288903  0.17503567    -0.02840
C1690       C  0.77048499  0.88329061  0.15522241    -0.07290
C1691       C  0.77510100  0.88083154  0.10260443     0.06240
C1692       C  0.75397799  0.87909306  0.06897887    -0.02310
Br1693     Br  0.75837608  0.87567435  0.99652739    -0.02010
H1694       H  0.71276308  0.87669322  0.06230920     0.10150
H1695       H  0.78660098  0.88529948  0.18121125     0.08170
Br1696     Br  0.74175754  0.88427462  0.24795252    -0.02440
loop_ 
_geom_bond_atom_site_label_1 
_geom_bond_atom_site_label_2 
_geom_bond_distance 
_geom_bond_site_symmetry_2 
_ccdc_geom_bond_type 
Zn1           O5   1.955       .  S
Zn1           O6   1.995       .  S
Zn1          O10   2.039       .  S
Zn1          O17   2.026       .  S
Zn2           O5   1.960       .  S
Zn2           O7   2.058       .  S
Zn2           O9   2.048       .  S
Zn2          O13   2.022       .  S
Zn3           O5   1.933       .  S
Zn3           O8   1.981       .  S
Zn3          O11   1.980       .  S
Zn3          O14   2.004       .  S
Zn4           O5   1.947       .  S
Zn4          O12   2.024       .  S
Zn4          O15   2.018       .  S
Zn4          O16   2.014       .  S
O6           C18   1.270       .  A
O7           C19   1.279       .  A
O8           C20   1.269       .  A
O9           C18   1.277       .  A
O10          C20   1.276       .  A
O11          C19   1.269       .  A
O12          C21   1.274       .  A
O13          C22   1.275       .  A
O14          C21   1.271       .  A
O15          C22   1.274       .  A
O16          C23   1.274       .  A
O17          C23   1.276       .  A
C18        C1678   1.474       .  S
C19        C1658   1.467   1_554  S
C20        C1688   1.479       .  S
C21        C1638   1.478       .  S
C22        C1648   1.477       .  S
C23        C1668   1.473       .  S
Zn24         O28   1.932       .  S
Zn24         O29   1.984       .  S
Zn24         O33   1.983       .  S
Zn24         O40   1.999       .  S
Zn25         O28   1.955       .  S
Zn25         O30   2.010       .  S
Zn25         O32   2.059       .  S
Zn25         O36   2.026       .  S
Zn26         O28   1.963       .  S
Zn26         O31   2.063       .  S
Zn26         O34   2.056       .  S
Zn26         O37   2.039       .  S
Zn27         O28   1.947       .  S
Zn27         O35   2.020       .  S
Zn27         O38   2.016       .  S
Zn27         O39   2.033       .  S
O29          C41   1.268       .  A
O30          C42   1.273       .  A
O31          C43   1.281       .  A
O32          C41   1.279       .  A
O33          C43   1.271       .  A
O34          C42   1.278       .  A
O35          C44   1.274       .  A
O36          C45   1.276       .  A
O37          C44   1.276       .  A
O38          C45   1.276       .  A
O39          C46   1.274       .  A
O40          C46   1.270       .  A
C41        C1618   1.484       .  S
C42        C1631   1.491       .  S
C43        C1661   1.477       .  S
C44        C1598   1.473       .  S
C45        C1671   1.488       .  S
C46        C1608   1.477       .  S
Zn47         O51   1.929       .  S
Zn47         O52   1.990       .  S
Zn47         O56   1.962       .  S
Zn47         O63   2.000       .  S
Zn48         O51   1.949       .  S
Zn48         O53   1.989       .  S
Zn48         O55   2.035       .  S
Zn48         O59   2.007   1_554  S
Zn49         O51   1.965       .  S
Zn49         O54   2.066       .  S
Zn49         O57   2.062       .  S
Zn49         O60   2.034       .  S
Zn50         O51   1.943       .  S
Zn50         O58   2.017       .  S
Zn50         O61   2.002   1_554  S
Zn50         O62   2.012       .  S
O52          C64   1.270       .  A
O53          C65   1.271       .  A
O54          C66   1.281       .  A
O55          C64   1.274       .  A
O56          C66   1.267       .  A
O57          C65   1.279       .  A
O58          C67   1.273       .  A
O59          C68   1.272       .  A
O60          C67   1.275       .  A
O61          C68   1.274       .  A
O62          C69   1.272       .  A
O63          C69   1.271       .  A
C64        C1691   1.475       .  S
C65        C1591   1.488       .  S
C66        C1581   1.477       .  S
C67        C1561   1.472       .  S
C68        C1571   1.484       .  S
C69        C1548   1.465       .  S
Zn70         O74   1.950       .  S
Zn70         O75   1.991       .  S
Zn70         O79   2.049       .  S
Zn70         O86   2.017       .  S
Zn71         O74   1.968       .  S
Zn71         O76   2.063       .  S
Zn71         O78   2.075       .  S
Zn71         O82   2.048       .  S
Zn72         O74   1.923       .  S
Zn72         O77   1.967       .  S
Zn72         O80   1.959       .  S
Zn72         O83   1.990       .  S
Zn73         O74   1.935       .  S
Zn73         O81   2.008       .  S
Zn73         O84   1.983       .  S
Zn73         O85   1.988       .  S
O75          C87   1.270       .  A
O76          C88   1.282       .  A
O77          C89   1.267       .  A
O78          C87   1.281       .  A
O79          C89   1.276       .  A
O80          C88   1.265       .  A
O81          C90   1.270       .  A
O82          C91   1.278       .  A
O83          C90   1.269       .  A
O84          C91   1.268       .  A
O85          C92   1.271       .  A
O86          C92   1.275       .  A
C87        C1628   1.481       .  S
C88        C1578   1.488       .  S
C89        C1538   1.474       .  S
C90        C1528   1.469       .  S
C91        C1518   1.492       .  S
C92        C1568   1.467       .  S
Zn93         O97   1.913       .  S
Zn93         O98   1.971       .  S
Zn93        O102   1.967       .  S
Zn93        O109   1.978       .  S
Zn94         O97   1.945       .  S
Zn94         O99   1.989       .  S
Zn94        O101   2.045       .  S
Zn94        O105   2.022       .  S
Zn95         O97   1.956       .  S
Zn95        O100   2.054       .  S
Zn95        O103   2.052       .  S
Zn95        O106   2.031       .  S
Zn96         O97   1.937       .  S
Zn96        O104   2.003       .  S
Zn96        O107   1.998       .  S
Zn96        O108   2.022       .  S
O98         C110   1.268       .  A
O99         C111   1.270       .  A
O100        C112   1.279       .  A
O101        C110   1.276       .  A
O102        C112   1.269       .  A
O103        C111   1.278       .  A
O104        C113   1.272       .  A
O105        C114   1.275       .  A
O106        C113   1.275       .  A
O107        C114   1.275       .  A
O108        C115   1.273       .  A
O109        C115   1.267       .  A
C110       C1541   1.474       .  S
C111       C1508   1.478       .  S
C112       C1488   1.487       .  S
C113       C1478   1.466       .  S
C114       C1498   1.488       .  S
C115       C1468   1.480       .  S
Zn116       O120   1.953       .  S
Zn116       O121   2.047       .  S
Zn116       O125   2.019   1_556  S
Zn116       O132   1.996       .  S
Zn117       O120   1.927       .  S
Zn117       O122   2.005       .  S
Zn117       O124   1.987       .  S
Zn117       O128   1.968       .  S
Zn118       O120   1.939       .  S
Zn118       O123   2.000   1_556  S
Zn118       O126   2.026       .  S
Zn118       O129   2.020       .  S
Zn119       O120   1.960       .  S
Zn119       O127   2.032       .  S
Zn119       O130   2.058       .  S
Zn119       O131   2.054       .  S
O121        C133   1.276       .  A
O122        C134   1.272       .  A
O123        C135   1.273       .  A
O124        C133   1.269       .  A
O125        C135   1.277       .  A
O126        C134   1.273       .  A
O127        C136   1.275       .  A
O128        C137   1.270       .  A
O129        C136   1.273       .  A
O130        C137   1.280       .  A
O131        C138   1.278       .  A
O132        C138   1.271       .  A
C133       C1458   1.480       .  S
C134       C1451   1.484       .  S
C135       C1501   1.479       .  S
C136       C1441   1.473       .  S
C137       C1491   1.483       .  S
C138       C1588   1.479       .  S
Zn139       O143   1.945       .  S
Zn139       O144   1.995       .  S
Zn139       O148   2.053       .  S
Zn139       O155   2.025       .  S
Zn140       O143   1.960       .  S
Zn140       O145   2.068       .  S
Zn140       O147   2.060       .  S
Zn140       O151   2.046       .  S
Zn141       O143   1.915       .  S
Zn141       O146   1.983       .  S
Zn141       O149   1.966       .  S
Zn141       O152   1.988       .  S
Zn142       O143   1.935       .  S
Zn142       O150   2.028       .  S
Zn142       O153   2.005       .  S
Zn142       O154   2.006       .  S
O144        C156   1.273       .  A
O145        C157   1.282       .  A
O146        C158   1.268       .  A
O147        C156   1.279       .  A
O148        C158   1.277       .  A
O149        C157   1.267       .  A
O150        C159   1.274       .  A
O151        C160   1.277       .  A
O152        C159   1.269       .  A
O153        C160   1.274       .  A
O154        C161   1.273       .  A
O155        C161   1.276       .  A
C156       C1681   1.494       .  S
C157       C1418   1.490       .  S
C158       C1511   1.481       .  S
C159       C1408   1.469       .  S
C160       C1398   1.488       .  S
C161       C1428   1.465       .  S
Zn162       O166   1.945       .  S
Zn162       O167   1.989       .  S
Zn162       O171   2.042       .  S
Zn162       O178   2.026       .  S
Zn163       O166   1.959       .  S
Zn163       O168   2.060       .  S
Zn163       O170   2.057       .  S
Zn163       O174   2.041       .  S
Zn164       O166   1.919       .  S
Zn164       O169   1.991       .  S
Zn164       O172   1.973       .  S
Zn164       O175   2.005       .  S
Zn165       O166   1.929       .  S
Zn165       O173   2.019       .  S
Zn165       O176   1.987       .  S
Zn165       O177   2.003       .  S
O167        C179   1.270       .  A
O168        C180   1.281       .  A
O169        C181   1.270       .  A
O170        C179   1.280       .  A
O171        C181   1.277       .  A
O172        C180   1.267       .  A
O173        C182   1.273       .  A
O174        C183   1.276       .  A
O175        C182   1.272       .  A
O176        C183   1.272       .  A
O177        C184   1.272       .  A
O178        C184   1.276       .  A
C179       C1621   1.486       .  S
C180       C1431   1.488   1_556  S
C181       C1461   1.478       .  S
C182       C1388   1.473       .  S
C183       C1378   1.485       .  S
C184       C1421   1.465       .  S
Zn185       O189   1.952       .  S
Zn185       O190   1.992       .  S
Zn185       O194   2.016   1_554  S
Zn185       O201   2.045       .  S
Zn186       O189   1.969       .  S
Zn186       O191   2.040       .  S
Zn186       O193   2.066       .  S
Zn186       O197   2.072       .  S
Zn187       O189   1.945       .  S
Zn187       O192   1.995   1_554  S
Zn187       O195   2.017       .  S
Zn187       O198   2.023       .  S
Zn188       O189   1.926       .  S
Zn188       O196   2.002       .  S
Zn188       O199   1.953       .  S
Zn188       O200   1.993       .  S
O190        C202   1.272       .  A
O191        C203   1.276       .  A
O192        C204   1.274       .  A
O193        C202   1.279       .  A
O194        C204   1.275       .  A
O195        C203   1.273       .  A
O196        C205   1.271       .  A
O197        C206   1.283       .  A
O198        C205   1.272       .  A
O199        C206   1.264       .  A
O200        C207   1.270       .  A
O201        C207   1.276       .  A
C202       C1361   1.492       .  S
C203       C1558   1.474       .  S
C204       C1341   1.475       .  S
C205       C1328   1.471       .  S
C206       C1348   1.490       .  S
C207       C1371   1.480       .  S
Zn208       O212   1.915       .  S
Zn208       O213   1.989       .  S
Zn208       O217   1.968       .  S
Zn208       O224   1.960       .  S
Zn209       O212   1.927       .  S
Zn209       O214   1.994       .  S
Zn209       O216   2.015       .  S
Zn209       O220   1.987       .  S
Zn210       O212   1.954       .  S
Zn210       O215   2.052       .  S
Zn210       O218   2.046       .  S
Zn210       O221   2.052       .  S
Zn211       O212   1.955       .  S
Zn211       O219   1.995       .  S
Zn211       O222   2.026       .  S
Zn211       O223   2.055       .  S
O213        C225   1.270       .  A
O214        C226   1.271       .  A
O215        C227   1.280       .  A
O216        C225   1.272       .  A
O217        C227   1.269       .  A
O218        C226   1.277       .  A
O219        C228   1.271       .  A
O220        C229   1.270       .  A
O221        C228   1.280       .  A
O222        C229   1.277       .  A
O223        C230   1.277       .  A
O224        C230   1.265       .  A
C225       C1531   1.469       .  S
C226       C1298   1.479       .  S
C227       C1351   1.472       .  S
C228       C1318   1.479       .  S
C229       C1338   1.486       .  S
C230       C1311   1.482       .  S
Zn231       O235   1.949       .  S
Zn231       O236   2.058       .  S
Zn231       O240   2.006       .  S
Zn231       O247   2.021       .  S
Zn232       O235   1.927       .  S
Zn232       O237   1.985       .  S
Zn232       O239   1.983       .  S
Zn232       O243   2.006       .  S
Zn233       O235   1.957       .  S
Zn233       O238   2.046       .  S
Zn233       O241   2.050       .  S
Zn233       O244   2.035       .  S
Zn234       O235   1.940       .  S
Zn234       O242   2.004       .  S
Zn234       O245   2.025       .  S
Zn234       O246   2.005       .  S
O236        C248   1.278       .  A
O237        C249   1.271       .  A
O238        C250   1.277       .  A
O239        C248   1.270       .  A
O240        C250   1.271       .  A
O241        C249   1.278       .  A
O242        C251   1.272       .  A
O243        C252   1.271       .  A
O244        C251   1.276       .  A
O245        C252   1.274       .  A
O246        C253   1.272       .  A
O247        C253   1.277       .  A
C248       C1368   1.483       .  S
C249       C1268   1.469   1_554  S
C250       C1288   1.474       .  S
C251       C1651   1.478       .  S
C252       C1258   1.469       .  S
C253       C1278   1.474       .  S
Zn254       O258   1.938       .  S
Zn254       O259   1.999       .  S
Zn254       O263   2.003       .  S
Zn254       O270   2.000       .  S
Zn255       O258   1.965       .  S
Zn255       O260   2.055       .  S
Zn255       O262   2.035       .  S
Zn255       O266   2.044       .  S
Zn256       O258   1.929       .  S
Zn256       O261   2.004       .  S
Zn256       O264   1.981       .  S
Zn256       O267   1.991       .  S
Zn257       O258   1.960       .  S
Zn257       O265   2.054       .  S
Zn257       O268   1.992       .  S
Zn257       O269   2.032       .  S
O259        C271   1.271       .  A
O260        C272   1.279       .  A
O261        C273   1.272       .  A
O262        C271   1.275       .  A
O263        C273   1.271       .  A
O264        C272   1.270       .  A
O265        C274   1.277       .  A
O266        C275   1.279       .  A
O267        C274   1.270       .  A
O268        C275   1.271       .  A
O269        C276   1.277       .  A
O270        C276   1.272       .  A
C271       C1611   1.478       .  S
C272       C1281   1.477       .  S
C273       C1238   1.467       .  S
C274       C1321   1.484       .  S
C275       C1248   1.480       .  S
C276       C1271   1.484       .  S
Zn277       O281   1.958       .  S
Zn277       O282   2.032       .  S
Zn277       O286   2.059       .  S
Zn277       O293   2.055       .  S
Zn278       O281   1.939       .  S
Zn278       O283   2.005       .  S
Zn278       O285   2.012       .  S
Zn278       O289   2.027       .  S
Zn279       O281   1.948       .  S
Zn279       O284   1.997       .  S
Zn279       O287   2.021       .  S
Zn279       O290   2.043       .  S
Zn280       O281   1.925       .  S
Zn280       O288   1.978       .  S
Zn280       O291   1.993       .  S
Zn280       O292   1.972       .  S
O282        C294   1.276       .  A
O283        C295   1.275       .  A
O284        C296   1.270       .  A
O285        C294   1.273       .  A
O286        C296   1.280       .  A
O287        C295   1.275       .  A
O288        C297   1.268       .  A
O289        C298   1.274       .  A
O290        C297   1.276       .  A
O291        C298   1.270       .  A
O292        C299   1.270       .  A
O293        C299   1.280       .  A
C294       C1401   1.487       .  S
C295       C1221   1.482       .  S
C296       C1291   1.493       .  S
C297       C1228   1.482       .  S
C298       C1198   1.475       .  S
C299       C1211   1.478       .  S
Zn300       O304   1.931       .  S
Zn300       O305   1.993       .  S
Zn300       O309   1.974       .  S
Zn300       O316   1.986       .  S
Zn301       O304   1.947       .  S
Zn301       O306   2.021       .  S
Zn301       O308   2.026       .  S
Zn301       O312   2.001       .  S
Zn302       O304   1.964       .  S
Zn302       O307   2.056       .  S
Zn302       O310   2.036       .  S
Zn302       O313   2.051       .  S
Zn303       O304   1.953       .  S
Zn303       O311   1.991       .  S
Zn303       O314   2.019       .  S
Zn303       O315   2.043       .  S
O305        C317   1.270       .  A
O306        C318   1.275       .  A
O307        C319   1.278       .  A
O308        C317   1.273       .  A
O309        C319   1.270       .  A
O310        C318   1.277       .  A
O311        C320   1.271       .  A
O312        C321   1.273       .  A
O313        C320   1.278       .  A
O314        C321   1.275       .  A
O315        C322   1.277       .  A
O316        C322   1.269       .  A
C317       C1381   1.468       .  S
C318       C1181   1.486       .  S
C319       C1208   1.493       .  S
C320       C1191   1.484       .  S
C321       C1218   1.465   1_556  S
C322       C1251   1.479       .  S
Zn323       O327   1.933       .  S
Zn323       O328   2.019       .  S
Zn323       O332   1.998       .  S
Zn323       O339   1.999       .  S
Zn324       O327   1.917       .  S
Zn324       O329   1.978       .  S
Zn324       O331   1.981       .  S
Zn324       O335   1.971       .  S
Zn325       O327   1.942       .  S
Zn325       O330   2.021       .  S
Zn325       O333   2.033       .  S
Zn325       O336   1.976       .  S
Zn326       O327   1.956       .  S
Zn326       O334   2.052       .  S
Zn326       O337   2.054       .  S
Zn326       O338   2.041       .  S
O328        C340   1.271       .  A
O329        C341   1.268       .  A
O330        C342   1.275       .  A
O331        C340   1.270       .  A
O332        C342   1.274       .  A
O333        C341   1.274       .  A
O334        C343   1.278       .  A
O335        C344   1.267       .  A
O336        C343   1.269       .  A
O337        C344   1.281       .  A
O338        C345   1.276       .  A
O339        C345   1.274       .  A
C340       C1471   1.481       .  S
C341       C1308   1.465       .  S
C342       C1168   1.485       .  S
C343       C1231   1.480       .  S
C344       C1161   1.485       .  S
C345       C1151   1.485       .  S
Zn346       O350   1.925       .  S
Zn346       O351   1.962       .  S
Zn346       O355   1.989       .  S
Zn346       O362   1.987       .  S
Zn347       O350   1.962       .  S
Zn347       O352   2.055       .  S
Zn347       O354   2.065       .  S
Zn347       O358   2.034       .  S
Zn348       O350   1.953       .  S
Zn348       O353   2.048       .  S
Zn348       O356   1.997       .  S
Zn348       O359   2.018   1_556  S
Zn349       O350   1.948       .  S
Zn349       O357   2.002   1_556  S
Zn349       O360   2.024       .  S
Zn349       O361   2.029       .  S
O351        C363   1.266       .  A
O352        C364   1.278       .  A
O353        C365   1.276       .  A
O354        C363   1.282       .  A
O355        C365   1.269       .  A
O356        C364   1.271       .  A
O357        C366   1.274       .  A
O358        C367   1.275       .  A
O359        C366   1.276       .  A
O360        C367   1.275       .  A
O361        C368   1.273       .  A
O362        C368   1.269       .  A
C363       C1158   1.484       .  S
C364       C1358   1.479       .  S
C365       C1188   1.488       .  S
C366       C1171   1.467       .  S
C367       C1438   1.474       .  S
C368       C1141   1.474       .  S
Zn369       O373   1.941       .  S
Zn369       O374   2.034       .  S
Zn369       O378   1.997       .  S
Zn369       O385   2.011       .  S
Zn370       O373   1.916       .  S
Zn370       O375   1.970       .  S
Zn370       O377   1.989       .  S
Zn370       O381   1.957       .  S
Zn371       O373   1.954       .  S
Zn371       O376   2.025       .  S
Zn371       O379   2.053       .  S
Zn371       O382   2.002       .  S
Zn372       O373   1.962       .  S
Zn372       O380   2.058       .  S
Zn372       O383   2.060       .  S
Zn372       O384   2.035       .  S
O374        C386   1.274       .  A
O375        C387   1.268       .  A
O376        C388   1.278       .  A
O377        C386   1.267       .  A
O378        C388   1.271       .  A
O379        C387   1.276       .  A
O380        C389   1.278       .  A
O381        C390   1.268       .  A
O382        C389   1.273       .  A
O383        C390   1.279       .  A
O384        C391   1.276       .  A
O385        C391   1.273       .  A
C386       C1481   1.490       .  S
C387       C1118   1.485       .  S
C388       C1098   1.489       .  S
C389       C1128   1.492       .  S
C390       C1108   1.490       .  S
C391       C1088   1.471       .  S
Zn392       O396   1.941       .  S
Zn392       O397   2.006       .  S
Zn392       O401   2.023       .  S
Zn392       O408   2.002       .  S
Zn393       O396   1.958       .  S
Zn393       O398   2.050   1_556  S
Zn393       O400   2.030       .  S
Zn393       O404   2.042       .  S
Zn394       O396   1.918       .  S
Zn394       O399   1.981       .  S
Zn394       O402   1.962   1_556  S
Zn394       O405   1.968       .  S
Zn395       O396   1.951       .  S
Zn395       O403   2.047       .  S
Zn395       O406   2.001       .  S
Zn395       O407   2.020       .  S
O397        C409   1.272       .  A
O398        C410   1.279       .  A
O399        C411   1.267       .  A
O400        C409   1.275       .  A
O401        C411   1.273       .  A
O402        C410   1.268       .  A
O403        C412   1.278       .  A
O404        C413   1.277       .  A
O405        C412   1.264       .  A
O406        C413   1.272       .  A
O407        C414   1.275       .  A
O408        C414   1.275       .  A
C409       C1448   1.471       .  S
C410       C1111   1.475       .  S
C411       C1058   1.484       .  S
C412       C1078   1.489       .  S
C413       C1068   1.486       .  S
C414       C1101   1.479       .  S
Zn415       O419   1.941       .  S
Zn415       O420   2.014       .  S
Zn415       O424   2.019       .  S
Zn415       O431   2.003   1_554  S
Zn416       O419   1.963       .  S
Zn416       O421   2.058       .  S
Zn416       O423   2.036       .  S
Zn416       O427   2.044       .  S
Zn417       O419   1.924       .  S
Zn417       O422   1.993       .  S
Zn417       O425   1.972       .  S
Zn417       O428   1.996       .  S
Zn418       O419   1.951       .  S
Zn418       O426   2.042       .  S
Zn418       O429   1.979       .  S
Zn418       O430   2.019   1_554  S
O420        C432   1.274       .  A
O421        C433   1.280       .  A
O422        C434   1.271       .  A
O423        C432   1.276       .  A
O424        C434   1.273       .  A
O425        C433   1.268       .  A
O426        C435   1.276       .  A
O427        C436   1.279       .  A
O428        C435   1.271       .  A
O429        C436   1.267       .  A
O430        C437   1.275       .  A
O431        C437   1.272       .  A
C432       C1018   1.480       .  S
C433       C1038   1.481       .  S
C434       C1551   1.465       .  S
C435       C1048   1.486       .  S
C436       C1081   1.491       .  S
C437       C1028   1.464       .  S
Zn438       O442   1.951       .  S
Zn438       O443   2.051       .  S
Zn438       O447   2.004       .  S
Zn438       O454   2.027       .  S
Zn439       O442   1.923       .  S
Zn439       O444   1.971       .  S
Zn439       O446   1.985       .  S
Zn439       O450   1.996       .  S
Zn440       O442   1.959       .  S
Zn440       O445   2.049       .  S
Zn440       O448   2.056       .  S
Zn440       O451   2.028       .  S
Zn441       O442   1.941       .  S
Zn441       O449   2.009       .  S
Zn441       O452   2.033       .  S
Zn441       O453   1.998       .  S
O443        C455   1.277       .  A
O444        C456   1.271       .  A
O445        C457   1.278       .  A
O446        C455   1.269       .  A
O447        C457   1.272       .  A
O448        C456   1.279       .  A
O449        C458   1.274       .  A
O450        C459   1.270       .  A
O451        C458   1.274       .  A
O452        C459   1.274       .  A
O453        C460   1.272       .  A
O454        C460   1.277       .  A
C455       C1008   1.484       .  S
C456       C1031   1.490       .  S
C457       C1131   1.479       .  S
C458        C998   1.489       .  S
C459       C1521   1.466       .  S
C460       C1041   1.469       .  S
Zn461       O465   1.934       .  S
Zn461       O466   2.007       .  S
Zn461       O470   2.004       .  S
Zn461       O477   2.020       .  S
Zn462       O465   1.948       .  S
Zn462       O467   2.000       .  S
Zn462       O469   2.028       .  S
Zn462       O473   2.052       .  S
Zn463       O465   1.956       .  S
Zn463       O468   2.031       .  S
Zn463       O471   2.038       .  S
Zn463       O474   2.054       .  S
Zn464       O465   1.920       .  S
Zn464       O472   1.974       .  S
Zn464       O475   1.980       .  S
Zn464       O476   1.996       .  S
O466        C478   1.274       .  A
O467        C479   1.272       .  A
O468        C480   1.276       .  A
O469        C478   1.277       .  A
O470        C480   1.272       .  A
O471        C479   1.277       .  A
O472        C481   1.271       .  A
O473        C482   1.279       .  A
O474        C481   1.278       .  A
O475        C482   1.267       .  A
O476        C483   1.270       .  A
O477        C483   1.274       .  A
C478        C968   1.481   1_554  S
C479       C1051   1.480       .  S
C480       C1641   1.475       .  S
C481        C978   1.483       .  S
C482        C988   1.488       .  S
C483        C958   1.479       .  S
Zn484       O488   1.969       .  S
Zn484       O489   2.032       .  S
Zn484       O493   2.050       .  S
Zn484       O500   2.054       .  S
Zn485       O488   1.949       .  S
Zn485       O490   2.003       .  S
Zn485       O492   2.026       .  S
Zn485       O496   2.027       .  S
Zn486       O488   1.958       .  S
Zn486       O491   1.988       .  S
Zn486       O494   2.026       .  S
Zn486       O497   2.053       .  S
Zn487       O488   1.937       .  S
Zn487       O495   1.987       .  S
Zn487       O498   2.000       .  S
Zn487       O499   1.976       .  S
O489        C501   1.275       .  A
O490        C502   1.273       .  A
O491        C503   1.270       .  A
O492        C501   1.274       .  A
O493        C503   1.278       .  A
O494        C502   1.276       .  A
O495        C504   1.269       .  A
O496        C505   1.273       .  A
O497        C504   1.277       .  A
O498        C505   1.270       .  A
O499        C506   1.270       .  A
O500        C506   1.279       .  A
C501       C1601   1.474       .  S
C502        C981   1.471       .  S
C503       C1011   1.480       .  S
C504        C948   1.478       .  S
C505        C938   1.468       .  S
C506        C971   1.475       .  S
Zn507       O511   1.939       .  S
Zn507       O512   2.019       .  S
Zn507       O516   2.005       .  S
Zn507       O523   1.999       .  S
Zn508       O511   1.932       .  S
Zn508       O513   1.986       .  S
Zn508       O515   2.005       .  S
Zn508       O519   1.985       .  S
Zn509       O511   1.953       .  S
Zn509       O514   2.028       .  S
Zn509       O517   2.040       .  S
Zn509       O520   1.980       .  S
Zn510       O511   1.964       .  S
Zn510       O518   2.047       .  S
Zn510       O521   2.049       .  S
Zn510       O522   2.042       .  S
O512        C524   1.273       .  A
O513        C525   1.269       .  A
O514        C526   1.276       .  A
O515        C524   1.271       .  A
O516        C526   1.274       .  A
O517        C525   1.275       .  A
O518        C527   1.279       .  A
O519        C528   1.272       .  A
O520        C527   1.267       .  A
O521        C528   1.278       .  A
O522        C529   1.277       .  A
O523        C529   1.270       .  A
C524       C1411   1.470       .  S
C525       C1121   1.467       .  S
C526        C928   1.480       .  S
C527        C991   1.489       .  S
C528        C918   1.481       .  S
C529        C908   1.489       .  S
Zn530       O534   1.941       .  S
Zn530       O535   2.018       .  S
Zn530       O539   1.998       .  S
Zn530       O546   2.002       .  S
Zn531       O534   1.928       .  S
Zn531       O536   1.989       .  S
Zn531       O538   2.003       .  S
Zn531       O542   1.984       .  S
Zn532       O534   1.953       .  S
Zn532       O537   2.030       .  S
Zn532       O540   2.048       .  S
Zn532       O543   1.996       .  S
Zn533       O534   1.960       .  S
Zn533       O541   2.049       .  S
Zn533       O544   2.052       .  S
Zn533       O545   2.032       .  S
O535        C547   1.272       .  A
O536        C548   1.270       .  A
O537        C549   1.277       .  A
O538        C547   1.271       .  A
O539        C549   1.273       .  A
O540        C548   1.277       .  A
O541        C550   1.278       .  A
O542        C551   1.271       .  A
O543        C550   1.271       .  A
O544        C551   1.279       .  A
O545        C552   1.274       .  A
O546        C552   1.273       .  A
C547       C1391   1.472       .  S
C548       C1071   1.490       .  S
C549        C921   1.471       .  S
C550        C951   1.481       .  S
C551        C931   1.474   1_556  S
C552        C898   1.486       .  S
Zn553       O557   1.937       .  S
Zn553       O558   2.026       .  S
Zn553       O562   2.013       .  S
Zn553       O569   2.004   1_554  S
Zn554       O557   1.925       .  S
Zn554       O559   1.980       .  S
Zn554       O561   1.999       .  S
Zn554       O565   1.997       .  S
Zn555       O557   1.952       .  S
Zn555       O560   2.035       .  S
Zn555       O563   2.050       .  S
Zn555       O566   2.032       .  S
Zn556       O557   1.949       .  S
Zn556       O564   2.004       .  S
Zn556       O567   2.046       .  S
Zn556       O568   2.033   1_554  S
O558        C570   1.274       .  A
O559        C571   1.270       .  A
O560        C572   1.276       .  A
O561        C570   1.272       .  A
O562        C572   1.274       .  A
O563        C571   1.278       .  A
O564        C573   1.272       .  A
O565        C574   1.271       .  A
O566        C573   1.277       .  A
O567        C574   1.277       .  A
O568        C575   1.277       .  A
O569        C575   1.273       .  A
C570       C1331   1.472       .  S
C571        C868   1.468       .  S
C572       C1021   1.481       .  S
C573        C891   1.480       .  S
C574        C878   1.485       .  S
C575        C858   1.472       .  S
Zn576       O580   1.962       .  S
Zn576       O581   2.059       .  S
Zn576       O585   2.053       .  S
Zn576       O592   2.029       .  S
Zn577       O580   1.922       .  S
Zn577       O582   1.984       .  S
Zn577       O584   1.977       .  S
Zn577       O588   1.999       .  S
Zn578       O580   1.953       .  S
Zn578       O583   1.990       .  S
Zn578       O586   2.037       .  S
Zn578       O589   2.029       .  S
Zn579       O580   1.938       .  S
Zn579       O587   1.999       .  S
Zn579       O590   2.035       .  S
Zn579       O591   2.010       .  S
O581        C593   1.279       .  A
O582        C594   1.269       .  A
O583        C595   1.270       .  A
O584        C593   1.271       .  A
O585        C595   1.279       .  A
O586        C594   1.276       .  A
O587        C596   1.274       .  A
O588        C597   1.272       .  A
O589        C596   1.276       .  A
O590        C597   1.274       .  A
O591        C598   1.273       .  A
O592        C598   1.276       .  A
C593        C861   1.485       .  S
C594        C841   1.478       .  S
C595        C848   1.483       .  S
C596        C871   1.485       .  S
C597       C1301   1.478       .  S
C598       C1001   1.489       .  S
Zn599       O603   1.965       .  S
Zn599       O604   2.030       .  S
Zn599       O608   2.043       .  S
Zn599       O615   2.048       .  S
Zn600       O603   1.941       .  S
Zn600       O605   2.035       .  S
Zn600       O607   2.010       .  S
Zn600       O611   2.009       .  S
Zn601       O603   1.930       .  S
Zn601       O606   1.981       .  S
Zn601       O609   2.001       .  S
Zn601       O612   1.989       .  S
Zn602       O603   1.952       .  S
Zn602       O610   2.051       .  S
Zn602       O613   2.022       .  S
Zn602       O614   2.004       .  S
O604        C616   1.275       .  A
O605        C617   1.274       .  A
O606        C618   1.271       .  A
O607        C616   1.273       .  A
O608        C618   1.278       .  A
O609        C617   1.272       .  A
O610        C619   1.278       .  A
O611        C620   1.274       .  A
O612        C619   1.269       .  A
O613        C620   1.276       .  A
O614        C621   1.272       .  A
O615        C621   1.277       .  A
C616       C1148   1.484       .  S
C617       C1091   1.487       .  S
C618        C808   1.476       .  S
C619        C851   1.481       .  S
C620        C818   1.475       .  S
C621        C831   1.481       .  S
Zn622       O626   1.938       .  S
Zn622       O627   1.993       .  S
Zn622       O631   2.002       .  S
Zn622       O638   2.022       .  S
Zn623       O626   1.961       .  S
Zn623       O628   2.046       .  S
Zn623       O630   2.032       .  S
Zn623       O634   2.042   1_556  S
Zn624       O626   1.946       .  S
Zn624       O629   2.023       .  S
Zn624       O632   1.995       .  S
Zn624       O635   2.045       .  S
Zn625       O626   1.923       .  S
Zn625       O633   1.983       .  S
Zn625       O636   1.982   1_556  S
Zn625       O637   1.988       .  S
O627        C639   1.272       .  A
O628        C640   1.278       .  A
O629        C641   1.275       .  A
O630        C639   1.275       .  A
O631        C641   1.272       .  A
O632        C640   1.271       .  A
O633        C642   1.268       .  A
O634        C643   1.278       .  A
O635        C642   1.277       .  A
O636        C643   1.270       .  A
O637        C644   1.272       .  A
O638        C644   1.272       .  A
C639       C1138   1.475       .  S
C640        C801   1.473       .  S
C641        C811   1.473       .  S
C642        C888   1.478       .  S
C643        C821   1.474       .  S
C644       C1061   1.486       .  S
Zn645       O649   1.952       .  S
Zn645       O650   1.994       .  S
Zn645       O654   2.053       .  S
Zn645       O661   2.027       .  S
Zn646       O649   1.966       .  S
Zn646       O651   2.050       .  S
Zn646       O653   2.055       .  S
Zn646       O657   2.027       .  S
Zn647       O649   1.929       .  S
Zn647       O652   1.974       .  S
Zn647       O655   1.984       .  S
Zn647       O658   2.009       .  S
Zn648       O649   1.940       .  S
Zn648       O656   2.022       .  S
Zn648       O659   2.001       .  S
Zn648       O660   2.003       .  S
O650        C662   1.270       .  A
O651        C663   1.278       .  A
O652        C664   1.268       .  A
O653        C662   1.278       .  A
O654        C664   1.277       .  A
O655        C663   1.272       .  A
O656        C665   1.273       .  A
O657        C666   1.275       .  A
O658        C665   1.271       .  A
O659        C666   1.272       .  A
O660        C667   1.272       .  A
O661        C667   1.278       .  A
C662        C828   1.481       .  S
C663        C778   1.490       .  S
C664        C788   1.471       .  S
C665        C911   1.469       .  S
C666       C1201   1.473       .  S
C667        C768   1.485       .  S
Zn668       O672   1.967       .  S
Zn668       O673   2.028       .  S
Zn668       O677   2.047       .  S
Zn668       O684   2.045       .  S
Zn669       O672   1.950       .  S
Zn669       O674   2.026       .  S
Zn669       O676   2.026       .  S
Zn669       O680   2.004       .  S
Zn670       O672   1.937       .  S
Zn670       O675   1.976       .  S
Zn670       O678   2.002       .  S
Zn670       O681   1.990       .  S
Zn671       O672   1.956       .  S
Zn671       O679   2.054       .  S
Zn671       O682   2.023       .  S
Zn671       O683   1.993       .  S
O673        C685   1.275       .  A
O674        C686   1.273       .  A
O675        C687   1.269       .  A
O676        C685   1.275       .  A
O677        C687   1.278       .  A
O678        C686   1.271       .  A
O679        C688   1.278       .  A
O680        C689   1.273       .  A
O681        C688   1.269       .  A
O682        C689   1.275       .  A
O683        C690   1.271       .  A
O684        C690   1.277       .  A
C685       C1178   1.486       .  S
C686        C901   1.470       .  S
C687        C771   1.467       .  S
C688        C758   1.484       .  S
C689        C781   1.466   1_556  S
C690        C798   1.481       .  S
Zn691       O695   1.968       .  S
Zn691       O696   2.038       .  S
Zn691       O700   2.056       .  S
Zn691       O707   2.057       .  S
Zn692       O695   1.944       .  S
Zn692       O697   2.022       .  S
Zn692       O699   2.010       .  S
Zn692       O703   2.001       .  S
Zn693       O695   1.930       .  S
Zn693       O698   1.977       .  S
Zn693       O701   2.003       .  S
Zn693       O704   1.974       .  S
Zn694       O695   1.957       .  S
Zn694       O702   2.047       .  S
Zn694       O705   2.021       .  S
Zn694       O706   1.985       .  S
O696        C708   1.277       .  A
O697        C709   1.272       .  A
O698        C710   1.269       .  A
O699        C708   1.273       .  A
O700        C710   1.279       .  A
O701        C709   1.272       .  A
O702        C711   1.276       .  A
O703        C712   1.272       .  A
O704        C711   1.269       .  A
O705        C712   1.275       .  A
O706        C713   1.270       .  A
O707        C713   1.279       .  A
C708       C1261   1.489       .  S
C709        C961   1.485       .  S
C710        C748   1.471       .  S
C711        C791   1.481       .  S
C712        C738   1.466   1_554  S
C713        C881   1.480       .  S
Zn714       O718   1.933       .  S
Zn714       O719   2.014       .  S
Zn714       O723   1.988       .  S
Zn714       O730   2.002       .  S
Zn715       O718   1.922       .  S
Zn715       O720   1.972       .  S
Zn715       O722   1.994       .  S
Zn715       O726   1.974       .  S
Zn716       O718   1.960       .  S
Zn716       O721   2.042       .  S
Zn716       O724   2.065       .  S
Zn716       O727   2.058       .  S
Zn717       O718   1.948       .  S
Zn717       O725   1.992       .  S
Zn717       O728   2.034       .  S
Zn717       O729   2.022       .  S
O719        C731   1.272       .  A
O720        C732   1.270       .  A
O721        C733   1.277       .  A
O722        C731   1.270       .  A
O723        C733   1.270       .  A
O724        C732   1.280       .  A
O725        C734   1.270       .  A
O726        C735   1.267       .  A
O727        C734   1.280       .  A
O728        C735   1.275       .  A
O729        C736   1.275       .  A
O730        C736   1.273       .  A
C731       C1241   1.467       .  S
C732        C751   1.488       .  S
C733        C941   1.486       .  S
C734        C761   1.486       .  S
C735        C838   1.472       .  S
C736        C741   1.480       .  S
C737        C738   1.402       .  A
C737        C742   1.399       .  A
C737        H744   1.084       .  S
C738        C739   1.403       .  A
C739        C740   1.397       .  A
C739       Br746   1.919       .  S
C740        C741   1.408       .  A
C740        H745   1.084       .  S
C741        C742   1.413       .  A
C742       Br743   1.920       .  S
C747        C748   1.404       .  A
C747        C752   1.401       .  A
C747        H754   1.084       .  S
C748        C749   1.402       .  A
C749        C750   1.398       .  A
C749       Br756   1.919       .  S
C750        C751   1.412       .  A
C750        H755   1.083       .  S
C751        C752   1.413       .  A
C752       Br753   1.920       .  S
C757        C758   1.403       .  A
C757        C762   1.401       .  A
C757        H764   1.084       .  S
C758        C759   1.414       .  A
C759        C760   1.401       .  A
C759       Br766   1.921       .  S
C760        C761   1.404       .  A
C760        H765   1.083       .  S
C761        C762   1.416       .  A
C762       Br763   1.922       .  S
C767        C768   1.405       .  A
C767        C772   1.397       .  A
C767        H774   1.083       .  S
C768        C769   1.420       .  A
C769        C770   1.400       .  A
C769       Br776   1.923       .  S
C770        C771   1.397       .  A
C770        H775   1.084       .  S
C771        C772   1.408       .  A
C772       Br773   1.921       .  S
C777        C778   1.412       .  A
C777        C782   1.395       .  A
C777        H784   1.083       .  S
C778        C779   1.417       .  A
C779        C780   1.402       .  A
C779       Br786   1.921       .  S
C780        C781   1.402       .  A
C780        H785   1.084       .  S
C781        C782   1.400       .  A
C782       Br783   1.920       .  S
C787        C788   1.404       .  A
C787        C792   1.405       .  A
C787        H794   1.083       .  S
C788        C789   1.406       .  A
C789        C790   1.392       .  A
C789       Br796   1.918       .  S
C790        C791   1.405       .  A
C790        H795   1.084       .  S
C791        C792   1.414       .  A
C792       Br793   1.919       .  S
C797        C798   1.410       .  A
C797        C802   1.399       .  A
C797        H804   1.084       .  S
C798        C799   1.409       .  A
C799        C800   1.401       .  A
C799       Br806   1.919       .  S
C800        C801   1.406       .  A
C800        H805   1.084       .  S
C801        C802   1.404       .  A
C802       Br803   1.919       .  S
C807        C808   1.407       .  A
C807        C812   1.396       .  A
C807        H814   1.084       .  S
C808        C809   1.408       .  A
C809        C810   1.400       .  A
C809       Br816   1.920       .  S
C810        C811   1.406       .  A
C810        H815   1.084       .  S
C811        C812   1.406       .  A
C812       Br813   1.920       .  S
C817        C818   1.401       .  A
C817        C822   1.398       .  A
C817        H824   1.084       .  S
C818        C819   1.413       .  A
C819        C820   1.399       .  A
C819       Br826   1.919       .  S
C820        C821   1.401       .  A
C820        H825   1.084       .  S
C821        C822   1.414       .  A
C822       Br823   1.923       .  S
C827        C828   1.408       .  A
C827        C832   1.401       .  A
C827        H834   1.084       .  S
C828        C829   1.407       .  A
C829        C830   1.402       .  A
C829       Br836   1.919       .  S
C830        C831   1.408       .  A
C830        H835   1.084       .  S
C831        C832   1.407       .  A
C832       Br833   1.919       .  S
C837        C838   1.397       .  A
C837        C842   1.396       .  A
C837        H844   1.084       .  S
C838        C839   1.414       .  A
C839        C840   1.399       .  A
C839       Br846   1.923       .  S
C840        C841   1.401       .  A
C840        H845   1.083       .  S
C841        C842   1.417       .  A
C842       Br843   1.919       .  S
C847        C848   1.403       .  A
C847        C852   1.400       .  A
C847        H854   1.083       .  S
C848        C849   1.415       .  A
C849        C850   1.401       .  A
C849       Br856   1.922       .  S
C850        C851   1.402       .  A
C850        H855   1.084       .  S
C851        C852   1.414       .  A
C852       Br853   1.921       .  S
C857        C858   1.406       .  A
C857        C862   1.403       .  A
C857        H864   1.084       .  S
C858        C859   1.402       .  A
C859        C860   1.395       .  A
C859       Br866   1.920       .  S
C860        C861   1.410       .  A
C860        H865   1.082       .  S
C861        C862   1.411       .  A
C862       Br863   1.919       .  S
C867        C868   1.401       .  A
C867        C872   1.402       .  A
C867        H874   1.084       .  S
C868        C869   1.405       .  A
C869        C870   1.395       .  A
C869       Br876   1.921       .  S
C870        C871   1.407       .  A
C870        H875   1.083       .  S
C871        C872   1.418       .  A
C872       Br873   1.922       .  S
C877        C878   1.410       .  A
C877        C882   1.401       .  A
C877        H884   1.083       .  S
C878        C879   1.410       .  A
C879        C880   1.400       .  A
C879       Br886   1.921       .  S
C880        C881   1.408       .  A
C880        H885   1.084       .  S
C881        C882   1.406       .  A
C882       Br883   1.919       .  S
C887        C888   1.403       .  A
C887        C892   1.401   1_556  A
C887        H894   1.084       .  S
C888        C889   1.412       .  A
C889        C890   1.398   1_556  A
C889       Br896   1.922       .  S
C890        C891   1.403       .  A
C890        H895   1.084       .  S
C891        C892   1.413       .  A
C892       Br893   1.921       .  S
C897        C898   1.408       .  A
C897        C902   1.396       .  A
C897        H904   1.083       .  S
C898        C899   1.417       .  A
C899        C900   1.402       .  A
C899       Br906   1.921       .  S
C900        C901   1.401       .  A
C900        H905   1.084       .  S
C901        C902   1.405       .  A
C902       Br903   1.920       .  S
C907        C908   1.408       .  A
C907        C912   1.401       .  A
C907        H914   1.083       .  S
C908        C909   1.420       .  A
C909        C910   1.397       .  A
C909       Br916   1.918       .  S
C910        C911   1.396       .  A
C910        H915   1.084       .  S
C911        C912   1.405       .  A
C912       Br913   1.915       .  S
C917        C918   1.407       .  A
C917        C922   1.395       .  A
C917        H924   1.084       .  S
C918        C919   1.413       .  A
C919        C920   1.402       .  A
C919       Br926   1.920       .  S
C920        C921   1.404       .  A
C920        H925   1.084       .  S
C921        C922   1.405       .  A
C922       Br923   1.921       .  S
C927        C928   1.404       .  A
C927        C932   1.397       .  A
C927        H934   1.084       .  S
C928        C929   1.414       .  A
C929        C930   1.401       .  A
C929       Br936   1.919       .  S
C930        C931   1.402       .  A
C930        H935   1.084       .  S
C931        C932   1.410       .  A
C932       Br933   1.921       .  S
C937        C938   1.398       .  A
C937        C942   1.397       .  A
C937        H944   1.084       .  S
C938        C939   1.405       .  A
C939        C940   1.400       .  A
C939       Br946   1.917       .  S
C940        C941   1.408       .  A
C940        H945   1.083       .  S
C941        C942   1.420       .  A
C942       Br943   1.924       .  S
C947        C948   1.403       .  A
C947        C952   1.401       .  A
C947        H954   1.084       .  S
C948        C949   1.411       .  A
C949        C950   1.401       .  A
C949       Br956   1.920       .  S
C950        C951   1.404       .  A
C950        H955   1.084       .  S
C951        C952   1.413       .  A
C952       Br953   1.921       .  S
C957        C958   1.402       .  A
C957        C962   1.397       .  A
C957        H964   1.084       .  S
C958        C959   1.412       .  A
C959        C960   1.397       .  A
C959       Br966   1.918       .  S
C960        C961   1.405       .  A
C960        H965   1.084       .  S
C961        C962   1.414       .  A
C962       Br963   1.912       .  S
C967        C968   1.409       .  A
C967        C972   1.401       .  A
C967        H974   1.083       .  S
C968        C969   1.410       .  A
C969        C970   1.397       .  A
C969       Br976   1.921       .  S
C970        C971   1.405       .  A
C970        H975   1.084       .  S
C971        C972   1.406       .  A
C972       Br973   1.919       .  S
C977        C978   1.408       .  A
C977        C982   1.394       .  A
C977        H984   1.084       .  S
C978        C979   1.414       .  A
C979        C980   1.403       .  A
C979       Br986   1.920       .  S
C980        C981   1.405       .  A
C980        H985   1.084       .  S
C981        C982   1.404       .  A
C982       Br983   1.918       .  S
C987        C988   1.403       .  A
C987        C992   1.400       .  A
C987        H994   1.083       .  S
C988        C989   1.418       .  A
C989        C990   1.397       .  A
C989       Br996   1.920       .  S
C990        C991   1.402       .  A
C990        H995   1.083       .  S
C991        C992   1.420       .  A
C992       Br993   1.924       .  S
C997        C998   1.406       .  A
C997       C1002   1.398   1_655  A
C997       H1004   1.083       .  S
C998        C999   1.415       .  A
C999       C1000   1.400   1_655  A
C999      Br1006   1.922       .  S
C1000      C1001   1.407       .  A
C1000      H1005   1.083       .  S
C1001      C1002   1.416       .  A
C1002     Br1003   1.924       .  S
C1007      C1008   1.410       .  A
C1007      C1012   1.400       .  A
C1007      H1014   1.084       .  S
C1008      C1009   1.409       .  A
C1009      C1010   1.400       .  A
C1009     Br1016   1.920       .  S
C1010      C1011   1.408       .  A
C1010      H1015   1.084       .  S
C1011      C1012   1.406       .  A
C1012     Br1013   1.919       .  S
C1017      C1018   1.404       .  A
C1017      C1022   1.402   1_655  A
C1017      H1024   1.084       .  S
C1018      C1019   1.411       .  A
C1019      C1020   1.400   1_655  A
C1019     Br1026   1.921       .  S
C1020      C1021   1.404       .  A
C1020      H1025   1.084       .  S
C1021      C1022   1.412       .  A
C1022     Br1023   1.921       .  S
C1027      C1028   1.402       .  A
C1027      C1032   1.403       .  A
C1027      H1034   1.084       .  S
C1028      C1029   1.399       .  A
C1029      C1030   1.394       .  A
C1029     Br1036   1.920       .  S
C1030      C1031   1.413       .  A
C1030      H1035   1.083       .  S
C1031      C1032   1.417       .  A
C1032     Br1033   1.920       .  S
C1037      C1038   1.404       .  A
C1037      C1042   1.401       .  A
C1037      H1044   1.083       .  S
C1038      C1039   1.419       .  A
C1039      C1040   1.394       .  A
C1039     Br1046   1.919       .  S
C1040      C1041   1.394       .  A
C1040      H1045   1.084       .  S
C1041      C1042   1.411       .  A
C1042     Br1043   1.920       .  S
C1047      C1048   1.408       .  A
C1047      C1052   1.397       .  A
C1047      H1054   1.078       .  S
C1048      C1049   1.410       .  A
C1049      C1050   1.402       .  A
C1049     Br1056   1.920   1_554  S
C1050      C1051   1.409       .  A
C1050      H1055   1.084       .  S
C1051      C1052   1.406       .  A
C1052     Br1053   1.921       .  S
C1057      C1058   1.407       .  A
C1057      C1062   1.400   1_655  A
C1057      H1064   1.083       .  S
C1058      C1059   1.416       .  A
C1059      C1060   1.393   1_655  A
C1059     Br1066   1.926   1_556  S
C1060      C1061   1.405       .  A
C1060      H1065   1.083   1_556  S
C1061      C1062   1.415       .  A
C1062     Br1063   1.922       .  S
C1067      C1068   1.408       .  A
C1067      C1072   1.400       .  A
C1067      H1074   1.082       .  S
C1068      C1069   1.409       .  A
C1069      C1070   1.400       .  A
C1069     Br1076   1.921       .  S
C1070      C1071   1.411       .  A
C1070      H1075   1.083       .  S
C1071      C1072   1.412       .  A
C1072     Br1073   1.921       .  S
C1077      C1078   1.402       .  A
C1077      C1082   1.399       .  A
C1077      H1084   1.083       .  S
C1078      C1079   1.420   1_556  A
C1079      C1080   1.398       .  A
C1079     Br1086   1.926       .  S
C1080      C1081   1.403       .  A
C1080      H1085   1.083       .  S
C1081      C1082   1.422   1_554  A
C1082     Br1083   1.925       .  S
C1087      C1088   1.402       .  A
C1087      C1092   1.402   1_655  A
C1087      H1094   1.084       .  S
C1088      C1089   1.404       .  A
C1089      C1090   1.397   1_655  A
C1089     Br1096   1.917       .  S
C1090      C1091   1.408       .  A
C1090      H1095   1.083       .  S
C1091      C1092   1.417       .  A
C1092     Br1093   1.921       .  S
C1097      C1098   1.408       .  A
C1097      C1102   1.398       .  A
C1097      H1104   1.083       .  S
C1098      C1099   1.419       .  A
C1099      C1100   1.396       .  A
C1099     Br1106   1.925       .  S
C1100      C1101   1.402       .  A
C1100      H1105   1.084       .  S
C1101      C1102   1.412       .  A
C1102     Br1103   1.921       .  S
C1107      C1108   1.415       .  A
C1107      C1112   1.396       .  A
C1107      H1114   1.083       .  S
C1108      C1109   1.413       .  A
C1109      C1110   1.399       .  A
C1109     Br1116   1.921       .  S
C1110      C1111   1.408       .  A
C1110      H1115   1.084       .  S
C1111      C1112   1.403       .  A
C1112     Br1113   1.921       .  S
C1117      C1118   1.410       .  A
C1117      C1122   1.394       .  A
C1117      H1124   1.083       .  S
C1118      C1119   1.415       .  A
C1119      C1120   1.404       .  A
C1119     Br1126   1.920       .  S
C1120      C1121   1.403       .  A
C1120      H1125   1.084       .  S
C1121      C1122   1.402       .  A
C1122     Br1123   1.920       .  S
C1127      C1128   1.409       .  A
C1127      C1132   1.399       .  A
C1127      H1134   1.083       .  S
C1128      C1129   1.416       .  A
C1129      C1130   1.404       .  A
C1129     Br1136   1.918       .  S
C1130      C1131   1.403       .  A
C1130      H1135   1.084       .  S
C1131      C1132   1.407       .  A
C1132     Br1133   1.920       .  S
C1137      C1138   1.403       .  A
C1137      C1142   1.394       .  A
C1137      H1144   1.084       .  S
C1138      C1139   1.411       .  A
C1139      C1140   1.402       .  A
C1139     Br1146   1.920   1_556  S
C1140      C1141   1.404       .  A
C1140      H1145   1.084   1_556  S
C1141      C1142   1.410       .  A
C1142     Br1143   1.923       .  S
C1147      C1148   1.407       .  A
C1147      C1152   1.403       .  A
C1147      H1154   1.084       .  S
C1148      C1149   1.413       .  A
C1149      C1150   1.395       .  A
C1149     Br1156   1.922       .  S
C1150      C1151   1.405       .  A
C1150      H1155   1.084       .  S
C1151      C1152   1.413       .  A
C1152     Br1153   1.920       .  S
C1157      C1158   1.400       .  A
C1157      C1162   1.399       .  A
C1157      H1164   1.083       .  S
C1158      C1159   1.421       .  A
C1159      C1160   1.396       .  A
C1159     Br1166   1.925       .  S
C1160      C1161   1.400       .  A
C1160      H1165   1.084       .  S
C1161      C1162   1.421       .  A
C1162     Br1163   1.924       .  S
C1167      C1168   1.410       .  A
C1167      C1172   1.395       .  A
C1167      H1174   1.083       .  S
C1168      C1169   1.416       .  A
C1169      C1170   1.400       .  A
C1169     Br1176   1.922       .  S
C1170      C1171   1.401       .  A
C1170      H1175   1.084       .  S
C1171      C1172   1.404       .  A
C1172     Br1173   1.921       .  S
C1177      C1178   1.405       .  A
C1177      C1182   1.401       .  A
C1177      H1184   1.084       .  S
C1178      C1179   1.414       .  A
C1179      C1180   1.402       .  A
C1179     Br1186   1.922       .  S
C1180      C1181   1.405       .  A
C1180      H1185   1.084       .  S
C1181      C1182   1.413       .  A
C1182     Br1183   1.921       .  S
C1187      C1188   1.411       .  A
C1187      C1192   1.400       .  A
C1187      H1194   1.083       .  S
C1188      C1189   1.410       .  A
C1189      C1190   1.400       .  A
C1189     Br1196   1.921       .  S
C1190      C1191   1.409       .  A
C1190      H1195   1.084       .  S
C1191      C1192   1.408       .  A
C1192     Br1193   1.920       .  S
C1197      C1198   1.403       .  A
C1197      C1202   1.399       .  A
C1197      H1204   1.084       .  S
C1198      C1199   1.412       .  A
C1199      C1200   1.398       .  A
C1199     Br1206   1.922       .  S
C1200      C1201   1.401       .  A
C1200      H1205   1.084       .  S
C1201      C1202   1.411       .  A
C1202     Br1203   1.921       .  S
C1207      C1208   1.415       .  A
C1207      C1212   1.398       .  A
C1207      H1214   1.083       .  S
C1208      C1209   1.414       .  A
C1209      C1210   1.399       .  A
C1209     Br1216   1.922       .  S
C1210      C1211   1.407       .  A
C1210      H1215   1.084       .  S
C1211      C1212   1.404       .  A
C1212     Br1213   1.921       .  S
C1217      C1218   1.402       .  A
C1217      C1222   1.400       .  A
C1217      H1224   1.084       .  S
C1218      C1219   1.403       .  A
C1219      C1220   1.396       .  A
C1219     Br1226   1.920       .  S
C1220      C1221   1.409       .  A
C1220      H1225   1.083       .  S
C1221      C1222   1.414       .  A
C1222     Br1223   1.921       .  S
C1227      C1228   1.410       .  A
C1227      C1232   1.399       .  A
C1227      H1234   1.084       .  S
C1228      C1229   1.408       .  A
C1229      C1230   1.398       .  A
C1229     Br1236   1.921       .  S
C1230      C1231   1.409       .  A
C1230      H1235   1.084       .  S
C1231      C1232   1.407       .  A
C1232     Br1233   1.920       .  S
C1237      C1238   1.402       .  A
C1237      C1242   1.397       .  A
C1237      H1244   1.084       .  S
C1238      C1239   1.409       .  A
C1239      C1240   1.396       .  A
C1239     Br1246   1.921       .  S
C1240      C1241   1.402       .  A
C1240      H1245   1.084       .  S
C1241      C1242   1.409       .  A
C1242     Br1243   1.920       .  S
C1247      C1248   1.403       .  A
C1247      C1252   1.399   1_565  A
C1247      H1254   1.084       .  S
C1248      C1249   1.414       .  A
C1249      C1250   1.400   1_565  A
C1249     Br1256   1.921       .  S
C1250      C1251   1.403       .  A
C1250      H1255   1.084       .  S
C1251      C1252   1.413       .  A
C1252     Br1253   1.921       .  S
C1257      C1258   1.395       .  A
C1257      C1262   1.395       .  A
C1257      H1264   1.084       .  S
C1258      C1259   1.406       .  A
C1259      C1260   1.403       .  A
C1259     Br1266   1.918       .  S
C1260      C1261   1.409       .  A
C1260      H1265   1.083       .  S
C1261      C1262   1.418       .  A
C1262     Br1263   1.913       .  S
C1267      C1268   1.400       .  A
C1267      C1272   1.398       .  A
C1267      H1274   1.084       .  S
C1268      C1269   1.406       .  A
C1269      C1270   1.400       .  A
C1269     Br1276   1.919       .  S
C1270      C1271   1.408       .  A
C1270      H1275   1.083       .  S
C1271      C1272   1.416       .  A
C1272     Br1273   1.923       .  S
C1277      C1278   1.397       .  A
C1277      C1282   1.393       .  A
C1277      H1284   1.084       .  S
C1278      C1279   1.415       .  A
C1279      C1280   1.402       .  A
C1279     Br1286   1.920       .  S
C1280      C1281   1.402       .  A
C1280      H1285   1.083       .  S
C1281      C1282   1.413       .  A
C1282     Br1283   1.914       .  S
C1287      C1288   1.396       .  A
C1287      C1292   1.401   1_565  A
C1287      H1294   1.084       .  S
C1288      C1289   1.408       .  A
C1289      C1290   1.402   1_565  A
C1289     Br1296   1.918       .  S
C1290      C1291   1.407       .  A
C1290      H1295   1.083       .  S
C1291      C1292   1.424       .  A
C1292     Br1293   1.925       .  S
C1297      C1298   1.405       .  A
C1297      C1302   1.404       .  A
C1297      H1304   1.083       .  S
C1298      C1299   1.412       .  A
C1299      C1300   1.395       .  A
C1299     Br1306   1.922       .  S
C1300      C1301   1.402       .  A
C1300      H1305   1.084       .  S
C1301      C1302   1.411       .  A
C1302     Br1303   1.919       .  S
C1307      C1308   1.395       .  A
C1307      C1312   1.393   1_545  A
C1307      H1314   1.084       .  S
C1308      C1309   1.408       .  A
C1309      C1310   1.403   1_545  A
C1309     Br1316   1.918       .  S
C1310      C1311   1.407       .  A
C1310      H1315   1.083       .  S
C1311      C1312   1.419       .  A
C1312     Br1313   1.922       .  S
C1317      C1318   1.410       .  A
C1317      C1322   1.404       .  A
C1317      H1324   1.083       .  S
C1318      C1319   1.404       .  A
C1319      C1320   1.397       .  A
C1319     Br1326   1.920       .  S
C1320      C1321   1.406       .  A
C1320      H1325   1.076       .  S
C1321      C1322   1.408       .  A
C1322     Br1323   1.918       .  S
C1327      C1328   1.404       .  A
C1327      C1332   1.402       .  A
C1327      H1334   1.083   1_554  S
C1328      C1329   1.408       .  A
C1329      C1330   1.395       .  A
C1329     Br1336   1.919       .  S
C1330      C1331   1.402       .  A
C1330      H1335   1.084       .  S
C1331      C1332   1.410       .  A
C1332     Br1333   1.919   1_554  S
C1337      C1338   1.408       .  A
C1337      C1342   1.398       .  A
C1337      H1344   1.083       .  S
C1338      C1339   1.419       .  A
C1339      C1340   1.394       .  A
C1339     Br1346   1.925       .  S
C1340      C1341   1.401       .  A
C1340      H1345   1.084       .  S
C1341      C1342   1.411       .  A
C1342     Br1343   1.922       .  S
C1347      C1348   1.404       .  A
C1347      C1352   1.399       .  A
C1347      H1354   1.083       .  S
C1348      C1349   1.427       .  A
C1349      C1350   1.397       .  A
C1349     Br1356   1.925       .  S
C1350      C1351   1.394       .  A
C1350      H1355   1.084       .  S
C1351      C1352   1.412       .  A
C1352     Br1353   1.921       .  S
C1357      C1358   1.404       .  A
C1357      C1362   1.405   1_546  A
C1357      H1364   1.084       .  S
C1358      C1359   1.408       .  A
C1359      C1360   1.398   1_546  A
C1359     Br1366   1.920       .  S
C1360      C1361   1.408       .  A
C1360      H1365   1.083       .  S
C1361      C1362   1.415       .  A
C1362     Br1363   1.916       .  S
C1367      C1368   1.410       .  A
C1367      C1372   1.400       .  A
C1367      H1374   1.084       .  S
C1368      C1369   1.409       .  A
C1369      C1370   1.401       .  A
C1369     Br1376   1.920       .  S
C1370      C1371   1.408       .  A
C1370      H1375   1.084       .  S
C1371      C1372   1.406       .  A
C1372     Br1373   1.919   1_554  S
C1377      C1378   1.408       .  A
C1377      C1382   1.394       .  A
C1377      H1384   1.083       .  S
C1378      C1379   1.416       .  A
C1379      C1380   1.403       .  A
C1379     Br1386   1.920       .  S
C1380      C1381   1.402       .  A
C1380      H1385   1.084       .  S
C1381      C1382   1.404       .  A
C1382     Br1383   1.921       .  S
C1387      C1388   1.403       .  A
C1387      C1392   1.398       .  A
C1387      H1394   1.084       .  S
C1388      C1389   1.411       .  A
C1389      C1390   1.399       .  A
C1389     Br1396   1.921       .  S
C1390      C1391   1.402       .  A
C1390      H1395   1.084       .  S
C1391      C1392   1.409       .  A
C1392     Br1393   1.920       .  S
C1397      C1398   1.406       .  A
C1397      C1402   1.399       .  A
C1397      H1404   1.084       .  S
C1398      C1399   1.413       .  A
C1399      C1400   1.401       .  A
C1399     Br1406   1.917       .  S
C1400      C1401   1.406       .  A
C1400      H1405   1.083       .  S
C1401      C1402   1.414       .  A
C1402     Br1403   1.923       .  S
C1407      C1408   1.400       .  A
C1407      C1412   1.396       .  A
C1407      H1414   1.084       .  S
C1408      C1409   1.410       .  A
C1409      C1410   1.399       .  A
C1409     Br1416   1.920       .  S
C1410      C1411   1.402       .  A
C1410      H1415   1.084       .  S
C1411      C1412   1.408       .  A
C1412     Br1413   1.914       .  S
C1417      C1418   1.407       .  A
C1417      C1422   1.401       .  A
C1417      H1424   1.083       .  S
C1418      C1419   1.427       .  A
C1419      C1420   1.396       .  A
C1419     Br1426   1.927       .  S
C1420      C1421   1.392       .  A
C1420      H1425   1.084       .  S
C1421      C1422   1.406       .  A
C1422     Br1423   1.919       .  S
C1427      C1428   1.393       .  A
C1427      C1432   1.396       .  A
C1427      H1434   1.084       .  S
C1428      C1429   1.406       .  A
C1429      C1430   1.400       .  A
C1429     Br1436   1.919       .  S
C1430      C1431   1.407       .  A
C1430      H1435   1.083       .  S
C1431      C1432   1.425       .  A
C1432     Br1433   1.926       .  S
C1437      C1438   1.403       .  A
C1437      C1442   1.401   1_455  A
C1437      H1444   1.084       .  S
C1438      C1439   1.408       .  A
C1439      C1440   1.402   1_455  A
C1439     Br1446   1.918       .  S
C1440      C1441   1.403       .  A
C1440      H1445   1.083       .  S
C1441      C1442   1.408       .  A
C1442     Br1443   1.920       .  S
C1447      C1448   1.401       .  A
C1447      C1452   1.399       .  A
C1447      H1454   1.084       .  S
C1448      C1449   1.405       .  A
C1449      C1450   1.399       .  A
C1449     Br1456   1.920       .  S
C1450      C1451   1.408       .  A
C1450      H1455   1.083       .  S
C1451      C1452   1.415       .  A
C1452     Br1453   1.922       .  S
C1457      C1458   1.401       .  A
C1457      C1462   1.400       .  A
C1457      H1464   1.083       .  S
C1458      C1459   1.416       .  A
C1459      C1460   1.399       .  A
C1459     Br1466   1.920       .  S
C1460      C1461   1.399       .  A
C1460      H1465   1.084       .  S
C1461      C1462   1.415       .  A
C1462     Br1463   1.920       .  S
C1467      C1468   1.406       .  A
C1467      C1472   1.400   1_655  A
C1467      H1474   1.083       .  S
C1468      C1469   1.415       .  A
C1469      C1470   1.392   1_655  A
C1469     Br1476   1.926       .  S
C1470      C1471   1.404       .  A
C1470      H1475   1.084       .  S
C1471      C1472   1.413       .  A
C1472     Br1473   1.921       .  S
C1477      C1478   1.396       .  A
C1477      C1482   1.399       .  A
C1477      H1484   1.084       .  S
C1478      C1479   1.404       .  A
C1479      C1480   1.399       .  A
C1479     Br1486   1.919       .  S
C1480      C1481   1.409       .  A
C1480      H1485   1.083       .  S
C1481      C1482   1.422       .  A
C1482     Br1483   1.925       .  S
C1487      C1488   1.413       .  A
C1487      C1492   1.398       .  A
C1487      H1494   1.083       .  S
C1488      C1489   1.410       .  A
C1489      C1490   1.397       .  A
C1489     Br1496   1.922       .  S
C1490      C1491   1.410       .  A
C1490      H1495   1.083       .  S
C1491      C1492   1.407       .  A
C1492     Br1493   1.921       .  S
C1497      C1498   1.408       .  A
C1497      C1502   1.395       .  A
C1497      H1504   1.083       .  S
C1498      C1499   1.417       .  A
C1499      C1500   1.399       .  A
C1499     Br1506   1.923       .  S
C1500      C1501   1.404       .  A
C1500      H1505   1.084       .  S
C1501      C1502   1.411       .  A
C1502     Br1503   1.923       .  S
C1507      C1508   1.399       .  A
C1507      C1512   1.400       .  A
C1507      H1514   1.084       .  S
C1508      C1509   1.415       .  A
C1509      C1510   1.400       .  A
C1509     Br1516   1.921       .  S
C1510      C1511   1.401       .  A
C1510      H1515   1.083       .  S
C1511      C1512   1.416       .  A
C1512     Br1513   1.921       .  S
C1517      C1518   1.410       .  A
C1517      C1522   1.401       .  A
C1517      H1524   1.083       .  S
C1518      C1519   1.424       .  A
C1519      C1520   1.397       .  A
C1519     Br1526   1.925       .  S
C1520      C1521   1.395       .  A
C1520      H1525   1.084       .  S
C1521      C1522   1.403       .  A
C1522     Br1523   1.918       .  S
C1527      C1528   1.401       .  A
C1527      C1532   1.394   1_655  A
C1527      H1534   1.084       .  S
C1528      C1529   1.410       .  A
C1529      C1530   1.398   1_655  A
C1529     Br1536   1.919       .  S
C1530      C1531   1.402       .  A
C1530      H1535   1.084       .  S
C1531      C1532   1.409       .  A
C1532     Br1533   1.918       .  S
C1537      C1538   1.405       .  A
C1537      C1542   1.404   1_565  A
C1537      H1544   1.083       .  S
C1538      C1539   1.411       .  A
C1539      C1540   1.393   1_565  A
C1539     Br1546   1.923       .  S
C1540      C1541   1.402       .  A
C1540      H1545   1.084       .  S
C1541      C1542   1.411       .  A
C1542     Br1543   1.919       .  S
C1547      C1548   1.401       .  A
C1547      C1552   1.395       .  A
C1547      H1554   1.084       .  S
C1548      C1549   1.408       .  A
C1549      C1550   1.399       .  A
C1549     Br1556   1.919   1_554  S
C1550      C1551   1.402       .  A
C1550      H1555   1.084   1_554  S
C1551      C1552   1.407       .  A
C1552     Br1553   1.921       .  S
C1557      C1558   1.403       .  A
C1557      C1562   1.402   1_455  A
C1557      H1564   1.083       .  S
C1558      C1559   1.408       .  A
C1559      C1560   1.400   1_455  A
C1559     Br1566   1.914       .  S
C1560      C1561   1.401       .  A
C1560      H1565   1.084       .  S
C1561      C1562   1.409       .  A
C1562     Br1563   1.919       .  S
C1567      C1568   1.401       .  A
C1567      C1572   1.398       .  A
C1567      H1574   1.084       .  S
C1568      C1569   1.405       .  A
C1569      C1570   1.395       .  A
C1569     Br1576   1.922       .  S
C1570      C1571   1.409       .  A
C1570      H1575   1.083       .  S
C1571      C1572   1.417       .  A
C1572     Br1573   1.923       .  S
C1577      C1578   1.401       .  A
C1577      C1582   1.395       .  A
C1577      H1584   1.083       .  S
C1578      C1579   1.425       .  A
C1579      C1580   1.400       .  A
C1579     Br1586   1.925       .  S
C1580      C1581   1.397       .  A
C1580      H1585   1.084       .  S
C1581      C1582   1.415       .  A
C1582     Br1583   1.918       .  S
C1587      C1588   1.405       .  A
C1587      C1592   1.406   1_546  A
C1587      H1594   1.084       .  S
C1588      C1589   1.408       .  A
C1589      C1590   1.397   1_546  A
C1589     Br1596   1.921       .  S
C1590      C1591   1.407       .  A
C1590      H1595   1.084       .  S
C1591      C1592   1.415       .  A
C1592     Br1593   1.920       .  S
C1597      C1598   1.402       .  A
C1597      C1602   1.401       .  A
C1597      H1604   1.084       .  S
C1598      C1599   1.408       .  A
C1599      C1600   1.402       .  A
C1599     Br1606   1.918       .  S
C1600      C1601   1.403       .  A
C1600      H1605   1.083       .  S
C1601      C1602   1.408       .  A
C1602     Br1603   1.919       .  S
C1607      C1608   1.405       .  A
C1607      C1612   1.400       .  A
C1607      H1614   1.084       .  S
C1608      C1609   1.409       .  A
C1609      C1610   1.399       .  A
C1609     Br1616   1.920       .  S
C1610      C1611   1.405       .  A
C1610      H1615   1.084       .  S
C1611      C1612   1.410       .  A
C1612     Br1613   1.921       .  S
C1617      C1618   1.402       .  A
C1617      C1622   1.401   1_565  A
C1617      H1624   1.083       .  S
C1618      C1619   1.415       .  A
C1619      C1620   1.400   1_565  A
C1619     Br1626   1.922       .  S
C1620      C1621   1.403       .  A
C1620      H1625   1.083       .  S
C1621      C1622   1.417       .  A
C1622     Br1623   1.922       .  S
C1627      C1628   1.407       .  A
C1627      C1632   1.403       .  A
C1627      H1634   1.084       .  S
C1628      C1629   1.404       .  A
C1629      C1630   1.403       .  A
C1629     Br1636   1.918       .  S
C1630      C1631   1.412       .  A
C1630      H1635   1.083       .  S
C1631      C1632   1.411       .  A
C1632     Br1633   1.920       .  S
C1637      C1638   1.404       .  A
C1637      C1642   1.399       .  A
C1637      H1644   1.084       .  S
C1638      C1639   1.413       .  A
C1639      C1640   1.399       .  A
C1639     Br1646   1.921       .  S
C1640      C1641   1.402       .  A
C1640      H1645   1.084       .  S
C1641      C1642   1.410       .  A
C1642     Br1643   1.921       .  S
C1647      C1648   1.404       .  A
C1647      C1652   1.400       .  A
C1647      H1654   1.084       .  S
C1648      C1649   1.410       .  A
C1649      C1650   1.399       .  A
C1649     Br1656   1.921       .  S
C1650      C1651   1.405       .  A
C1650      H1655   1.084       .  S
C1651      C1652   1.411       .  A
C1652     Br1653   1.921       .  S
C1657      C1658   1.403       .  A
C1657      C1662   1.402       .  A
C1657      H1664   1.084       .  S
C1658      C1659   1.404       .  A
C1659      C1660   1.398       .  A
C1659     Br1666   1.919       .  S
C1660      C1661   1.406       .  A
C1660      H1665   1.084       .  S
C1661      C1662   1.410       .  A
C1662     Br1663   1.919       .  S
C1667      C1668   1.402       .  A
C1667      C1672   1.401       .  A
C1667      H1674   1.084       .  S
C1668      C1669   1.405       .  A
C1669      C1670   1.398       .  A
C1669     Br1676   1.920       .  S
C1670      C1671   1.409       .  A
C1670      H1675   1.083       .  S
C1671      C1672   1.416       .  A
C1672     Br1673   1.921       .  S
C1677      C1678   1.402       .  A
C1677      C1682   1.404   1_565  A
C1677      H1684   1.084       .  S
C1678      C1679   1.404       .  A
C1679      C1680   1.398   1_565  A
C1679     Br1686   1.920       .  S
C1680      C1681   1.411       .  A
C1680      H1685   1.083       .  S
C1681      C1682   1.417       .  A
C1682     Br1683   1.916       .  S
C1687      C1688   1.411       .  A
C1687      C1692   1.400       .  A
C1687      H1694   1.084       .  S
C1688      C1689   1.408       .  A
C1689      C1690   1.397       .  A
C1689     Br1696   1.920       .  S
C1690      C1691   1.404       .  A
C1690      H1695   1.080       .  S
C1691      C1692   1.405       .  A
C1692     Br1693   1.919   1_554  S
