geometry optimzed in LAMMPS
_audit_creation_date              2020-11-30 
_audit_creation_method            'lammps2cif' 
_symmetry_space_group_name_H-M    'P1' 
_symmetry_Int_Tables_number       1 
_symmetry_cell_setting            triclinic 
loop_ 
_symmetry_equiv_pos_as_xyz 
  x,y,z 
_cell_length_a                    50.432653973851664 
_cell_length_b                    50.294440048585464 
_cell_length_c                    34.418809688958106 
_cell_angle_alpha                 90.38708707424175 
_cell_angle_beta                  89.67314901810506 
_cell_angle_gamma                 90.50585408775626 
loop_ 
_atom_site_label 
_atom_site_type_symbol 
_atom_site_fract_x 
_atom_site_fract_y 
_atom_site_fract_z 
_atom_site_charge 
Zn1        Zn  0.00011498  0.08874161  0.21877792     1.49720
Zn2        Zn  0.99819303  0.10509873  0.31015768     1.49360
Zn3        Zn  0.03402018  0.13607137  0.25033691     1.49110
Zn4        Zn  0.46790199  0.13634784  0.24964110     1.49480
O5          O  0.00057035  0.11693017  0.25610058    -1.83350
O6          O  0.99377314  0.05608085  0.24687078    -0.73980
O7          O  0.03275452  0.10713910  0.33789769    -0.73800
O8          O  0.05526695  0.12384171  0.20216081    -0.73310
O9          O  0.98933974  0.06711087  0.30930517    -0.73990
O10         O  0.03423214  0.08580640  0.18900293    -0.73590
O11         O  0.05947392  0.12625009  0.29460494    -0.74180
O12         O  0.47892697  0.17511540  0.25312559    -0.73570
O13         O  0.46773221  0.11938790  0.34161962    -0.74320
O14         O  0.02343255  0.17522895  0.25025559    -0.73710
O15         O  0.44149533  0.12366025  0.29104855    -0.74180
O16         O  0.44781271  0.12706560  0.19979681    -0.74090
O17         O  0.46904595  0.09021823  0.18304236    -0.73880
C18         C  0.98840832  0.05030099  0.28183784     0.77910
C19         C  0.05578874  0.11435450  0.32685653     0.78400
C20         C  0.05378067  0.10159451  0.18408334     0.77360
C21         C  0.50126443  0.18753478  0.25250933     0.77740
C22         C  0.44476870  0.11797501  0.32666303     0.78870
C23         C  0.44972123  0.10598837  0.17921768     0.77920
Zn24       Zn  0.00025367  0.40263972  0.21911391     1.49720
Zn25       Zn  0.99890418  0.38729113  0.30795585     1.49360
Zn26       Zn  0.46635536  0.35464371  0.25046684     1.49110
Zn27       Zn  0.03268653  0.35464048  0.24979214     1.49480
O28         O  0.99975176  0.37402497  0.25525606    -1.83350
O29         O  0.00093534  0.43638290  0.24734634    -0.73980
O30         O  0.47095821  0.37136061  0.34243485    -0.73800
O31         O  0.44463636  0.36658918  0.20310681    -0.73310
O32         O  0.98729537  0.42367654  0.30574202    -0.73990
O33         O  0.46619748  0.40426186  0.18991536    -0.73590
O34         O  0.44175880  0.36611068  0.29540656    -0.74180
O35         O  0.02148797  0.31567187  0.25022002    -0.73570
O36         O  0.03505949  0.39159055  0.33038059    -0.74320
O37         O  0.47694390  0.31559289  0.25049945    -0.73710
O38         O  0.05976576  0.36649186  0.29138203    -0.74180
O39         O  0.05292014  0.36503834  0.20039166    -0.74090
O40         O  0.03188099  0.40198898  0.18400067    -0.73880
C41         C  0.99172881  0.44141131  0.28089762     0.77910
C42         C  0.44720707  0.37276798  0.33026018     0.78400
C43         C  0.44608360  0.38908379  0.18610090     0.77360
C44         C  0.99912247  0.30325014  0.25013320     0.77740
C45         C  0.05755127  0.38318805  0.31929556     0.78870
C46         C  0.05104694  0.38596291  0.17985568     0.77920
Zn47       Zn  0.14246824  0.49286303  0.04413057     1.49720
Zn48       Zn  0.09774415  0.01906303  0.49642903     1.49360
Zn49       Zn  0.14458529  0.49824736  0.44565271     1.49110
Zn50       Zn  0.10989493  0.45788652  0.48616957     1.49480
O51         O  0.12467310  0.49301082  0.49388786    -1.83350
O52         O  0.13270161  0.02619815  0.07745049    -0.73980
O53         O  0.10067670  0.04517741  0.45423399    -0.73800
O54         O  0.18288108  0.49685888  0.46361501    -0.73310
O55         O  0.09734627  0.03966611  0.04552534    -0.73990
O56         O  0.18159355  0.49186637  0.02877261    -0.73590
O57         O  0.13516841  0.03370510  0.41810469    -0.74180
O58         O  0.12819593  0.43540718  0.44743998    -0.73570
O59         O  0.06357377  0.00187053  0.48777109    -0.74320
O60         O  0.13426522  0.46814538  0.40631009    -0.73710
O61         O  0.07347647  0.46111150  0.46697674    -0.74180
O62         O  0.10669663  0.43775839  0.03427732    -0.74090
O63         O  0.12999585  0.46044926  0.07744539    -0.73880
C64         C  0.11273593  0.04157408  0.07448039     0.77910
C65         C  0.11558231  0.04905533  0.42500851     0.78400
C66         C  0.19434136  0.49391686  0.49649746     0.77360
C67         C  0.12877638  0.44368141  0.41282372     0.77740
C68         C  0.05714248  0.47977947  0.47233483     0.78870
C69         C  0.11498346  0.44067691  0.06869326     0.77920
Zn70       Zn  0.35857188  0.49569324  0.44745230     1.49720
Zn71       Zn  0.40576991  0.01864650  0.99403111     1.49360
Zn72       Zn  0.36024024  0.49608339  0.04573992     1.49110
Zn73       Zn  0.39327171  0.45659748  0.99277770     1.49480
O74         O  0.37855367  0.49228289  0.99565352    -1.83350
O75         O  0.36764607  0.03040422  0.41733512    -0.73980
O76         O  0.40773168  0.04067765  0.04074915    -0.73800
O77         O  0.32110635  0.49547643  0.03096401    -0.73310
O78         O  0.40253405  0.04392353  0.45079239    -0.73990
O79         O  0.32014239  0.49510950  0.46541626    -0.73590
O80         O  0.37141255  0.03138272  0.07447000    -0.74180
O81         O  0.39271804  0.43832344  0.04310284    -0.73570
O82         O  0.43958461  0.00183370  0.98654752    -0.74320
O83         O  0.37013179  0.46486562  0.08259221    -0.73710
O84         O  0.43119836  0.45878753  0.97814383    -0.74180
O85         O  0.37708763  0.43306943  0.45256874    -0.74090
O86         O  0.37003832  0.46504858  0.41042948    -0.73880
C87         C  0.38693718  0.04667297  0.42242769     0.77910
C88         C  0.39232934  0.04556967  0.06897194     0.78400
C89         C  0.30851507  0.49533750  0.99867230     0.77360
C90         C  0.38355230  0.44368772  0.07656317     0.77740
C91         C  0.44707747  0.47844808  0.97872164     0.78870
C92         C  0.37747558  0.44142071  0.41794607     0.77920
C93         C  0.23737167  0.01451143  0.47967622    -0.11490
C94         C  0.22354187  0.49340431  0.49713814     0.05520
C95         C  0.23774909  0.47308300  0.01593517    -0.06780
C96         C  0.26556964  0.47485178  0.01733352    -0.07520
C97         C  0.27934934  0.49590521  0.99962734    -0.02070
C98         C  0.26513012  0.01628097  0.48107418     0.04750
N99         N  0.27833866  0.03927620  0.96492945     0.67250
H100        H  0.22630830  0.03025148  0.46600981     0.16150
H101        H  0.27669190  0.45910185  0.03086611     0.15860
N102        N  0.22454552  0.45002958  0.53186955     0.74960
O103        O  0.26749480  0.05233233  0.43824360    -0.38490
O104        O  0.29919377  0.04850478  0.98026316    -0.38440
O105        O  0.20401360  0.44053532  0.51595087    -0.39140
O106        O  0.23520179  0.43712617  0.05887753    -0.39210
C107        C  0.01686806  0.45291468  0.47587224    -0.11490
C108        C  0.02967234  0.47581367  0.46201605     0.05520
C109        C  0.01505250  0.99716414  0.94703762    -0.06780
C110        C  0.48766334  0.99620381  0.95052972    -0.07520
C111        C  0.47494124  0.47497219  0.46939784    -0.02070
C112        C  0.48940885  0.45249346  0.48081355     0.04750
N113        N  0.47727402  0.43066866  0.50119907     0.67250
H114        H  0.02843084  0.43676451  0.48752677     0.16150
H115        H  0.47617986  0.01277271  0.94000757     0.15860
N116        N  0.02767708  0.02043945  0.93059748     0.74960
O117        O  0.48474197  0.40721658  0.49422414    -0.38490
O118        O  0.46292273  0.43503815  0.03073542    -0.38440
O119        O  0.04999022  0.01883477  0.41393354    -0.39140
O120        O  0.01587135  0.04248438  0.93073264    -0.39210
C121        C  0.09257220  0.41010721  0.16491295    -0.11490
C122        C  0.07207358  0.39323218  0.15188981     0.05520
C123        C  0.06909984  0.38848442  0.11179454    -0.06780
C124        C  0.08543981  0.40248132  0.08567828    -0.07520
C125        C  0.10439657  0.42152352  0.09831055    -0.02070
C126        C  0.10908107  0.42400647  0.13869931     0.04750
N127        N  0.12988960  0.44077235  0.15366951     0.67250
H128        H  0.09500248  0.41335490  0.19585719     0.16150
H129        H  0.08220341  0.39939474  0.05490044     0.15860
N130        N  0.04881966  0.37074347  0.09707241     0.74960
O131        O  0.12639596  0.45368775  0.18483975    -0.38490
O132        O  0.15302164  0.43909982  0.13970648    -0.38440
O133        O  0.04052283  0.35143615  0.11714581    -0.39140
O134        O  0.04043242  0.37314886  0.06278031    -0.39210
C135        C  0.09582568  0.38376728  0.36507537    -0.11490
C136        C  0.08133053  0.39633166  0.33604008     0.05520
C137        C  0.08726208  0.42321567  0.32682705    -0.06780
C138        C  0.10557247  0.43750493  0.34981390    -0.07520
C139        C  0.11826960  0.42574959  0.38149960    -0.02070
C140        C  0.11465328  0.39796987  0.38743343     0.04750
N141        N  0.12937110  0.38411220  0.41658616     0.67250
H142        H  0.09174764  0.36303383  0.37127618     0.16150
H143        H  0.10853375  0.45853341  0.34453415     0.15860
N144        N  0.07407186  0.43662218  0.29546036     0.74960
O145        O  0.11954315  0.36385707  0.43290728    -0.38490
O146        O  0.15333204  0.39015957  0.42282239    -0.38440
O147        O  0.07309982  0.46169727  0.29487038    -0.39140
O148        O  0.06571848  0.42376786  0.26630273    -0.39210
C149        C  0.41639813  0.38674782  0.12859220    -0.11490
C150        C  0.42357536  0.39937601  0.16333868     0.05520
C151        C  0.41174453  0.42405581  0.17336617    -0.06780
C152        C  0.39614744  0.43713036  0.14565864    -0.07520
C153        C  0.39143269  0.42588363  0.10895284    -0.02070
C154        C  0.39992263  0.39941378  0.10160395     0.04750
N155        N  0.39252626  0.38548383  0.06657404     0.67250
H156        H  0.42459338  0.36742138  0.12174464     0.16150
H157        H  0.38898552  0.45695795  0.15187211     0.15860
N158        N  0.41578287  0.43632864  0.21097882     0.74960
O159        O  0.40740257  0.36778998  0.05240065    -0.38490
O160        O  0.36979836  0.38865255  0.05219989    -0.38440
O161        O  0.42183115  0.42247839  0.24003121    -0.39140
O162        O  0.40997036  0.46044443  0.21644990    -0.39210
C163        C  0.43596957  0.41410180  0.36399656    -0.11370
C164        C  0.42763176  0.38845796  0.35330045     0.05520
C165        C  0.40071319  0.38118903  0.35965664    -0.06780
C166        C  0.38371800  0.39944460  0.37895743    -0.07520
C167        C  0.39228314  0.42537631  0.38876695    -0.02070
C168        C  0.41856658  0.43307435  0.37920392     0.04750
N169        N  0.42828805  0.45982492  0.38532007     0.67250
H170        H  0.45632716  0.41997718  0.35878719     0.16150
H171        H  0.36383385  0.39323831  0.38717217     0.15860
N172        N  0.39059715  0.35538923  0.34847668     0.74960
O173        O  0.45275271  0.46392651  0.39033091    -0.38490
O174        O  0.41393432  0.47940857  0.37719878    -0.38440
O175        O  0.40585889  0.33573866  0.34511177    -0.39140
O176        O  0.36598791  0.35177466  0.34401372    -0.39210
C177        C  0.09156886  0.08431962  0.09244337    -0.11490
C178        C  0.10563427  0.06178783  0.10474512     0.05520
C179        C  0.10704452  0.05667332  0.14503458    -0.06780
C180        C  0.09146487  0.07181549  0.17093718    -0.07520
C181        C  0.07537725  0.09260564  0.15792893    -0.02070
C182        C  0.07649498  0.09990914  0.11840322     0.04750
N183        N  0.06119759  0.12171212  0.10367797     0.67250
H184        H  0.09109522  0.08887577  0.06172656     0.16150
H185        H  0.09086998  0.06648549  0.20140320     0.15860
N186        N  0.12256588  0.03526083  0.15991036     0.74960
O187        O  0.05547439  0.12275571  0.06804903    -0.38490
O188        O  0.05538603  0.14120876  0.12527883    -0.38440
O189        O  0.14682915  0.03370462  0.15107876    -0.39140
O190        O  0.11358763  0.02112299  0.18724433    -0.39210
C191        C  0.09290341  0.09198257  0.41472272    -0.11490
C192        C  0.10786664  0.07106879  0.39852281     0.05520
C193        C  0.11048018  0.06961478  0.35756086    -0.06780
C194        C  0.09622886  0.08743371  0.33427535    -0.07520
C195        C  0.07848399  0.10579584  0.35079745    -0.02070
C196        C  0.07791628  0.10910343  0.39155174     0.04750
N197        N  0.06116571  0.12870808  0.40978796     0.67250
H198        H  0.09147991  0.09389473  0.44604259     0.16150
H199        H  0.09641976  0.08455178  0.30302559     0.15860
N200        N  0.12474798  0.04851484  0.33884233     0.74960
O201        O  0.05404464  0.12620385  0.44482013    -0.38490
O202        O  0.05486158  0.14952206  0.39185911    -0.38440
O203        O  0.11808286  0.02463780  0.34488590    -0.39140
O204        O  0.13991597  0.05373176  0.31055224    -0.39210
C205        C  0.39317714  0.06668256  0.13521709    -0.11490
C206        C  0.40057224  0.06749637  0.09591622     0.05520
C207        C  0.41971720  0.08675382  0.08398131    -0.06780
C208        C  0.43413464  0.10100381  0.11205257    -0.07520
C209        C  0.42868789  0.09810739  0.15161457    -0.02070
C210        C  0.40660960  0.08220462  0.16343670     0.04750
N211        N  0.39833932  0.08051623  0.20365534     0.67250
H212        H  0.37795465  0.05267316  0.14421735     0.16150
H213        H  0.45045039  0.11375976  0.10304690     0.15860
N214        N  0.42521766  0.09154450  0.04356181     0.74960
O215        O  0.38026340  0.06438083  0.21365692    -0.38490
O216        O  0.40681221  0.09691382  0.22864701    -0.38440
O217        O  0.40637517  0.09307726  0.01971467    -0.39140
O218        O  0.44843754  0.09736328  0.03240514    -0.39210
C219        C  0.40380057  0.09242993  0.41133778    -0.11490
C220        C  0.39315017  0.06885588  0.39518807     0.05520
C221        C  0.39518969  0.06491129  0.35456114    -0.06780
C222        C  0.40995295  0.08319644  0.33214925    -0.07520
C223        C  0.42282420  0.10531931  0.34912342    -0.02070
C224        C  0.41863594  0.11068935  0.38900172     0.04750
N225        N  0.42993954  0.13395727  0.40740492     0.67250
H226        H  0.40182359  0.09582122  0.44230355     0.16150
H227        H  0.41321692  0.07884250  0.30164075     0.15860
N228        N  0.38483155  0.04132885  0.33617722     0.74960
O229        O  0.43327443  0.13464367  0.44373627    -0.38490
O230        O  0.43438389  0.15478568  0.38806444    -0.38440
O231        O  0.36080515  0.03485136  0.34090311    -0.39140
O232        O  0.39834839  0.02940811  0.31056291    -0.39210
C233        C  0.02265850  0.26047474  0.26032998    -0.11490
C234        C  0.99920666  0.27359783  0.25008778     0.05520
C235        C  0.47639711  0.25805889  0.24142620    -0.06780
C236        C  0.47758414  0.23027317  0.24365800    -0.07520
C237        C  0.50107716  0.21715441  0.25360555    -0.02070
C238        C  0.02382022  0.23266083  0.26267028     0.04750
N239        N  0.04791150  0.22079447  0.27585376     0.67250
H240        H  0.04018131  0.27195522  0.26789962     0.16150
H241        H  0.46004377  0.21881439  0.23608735     0.15860
N242        N  0.45215209  0.26984362  0.22876931     0.74960
O243        O  0.06999021  0.22913446  0.26320293    -0.38490
O244        O  0.04742540  0.20549135  0.30478330    -0.38440
O245        O  0.45206569  0.28394716  0.19856706    -0.39140
O246        O  0.43032870  0.26223964  0.24322612    -0.39210
C247        C  0.99527529  0.01039954  0.31990145    -0.11490
C248        C  0.98155084  0.02304242  0.29011848     0.05520
C249        C  0.46641854  0.00831114  0.26306701    -0.06780
C250        C  0.46844814  0.48088813  0.26322491    -0.07520
C251        C  0.98478460  0.46837745  0.28991127    -0.02070
C252        C  0.99721595  0.48278720  0.32004724     0.04750
N253        N  0.01446607  0.47026214  0.34741516     0.67250
H254        H  0.00665500  0.02205465  0.34064546     0.16150
H255        H  0.45872129  0.46926365  0.24077370     0.15860
N256        N  0.45070852  0.02098461  0.23375614     0.74960
O257        O  0.03627038  0.48112178  0.35628387    -0.38490
O258        O  0.00690600  0.44991173  0.36577792    -0.38440
O259        O  0.44710509  0.00987861  0.20116430    -0.39140
O260        O  0.43905616  0.04256179  0.24112772    -0.39210
Zn261      Zn  0.00011749  0.08873935  0.71877400     1.49720
Zn262      Zn  0.99819473  0.10510166  0.81015127     1.49360
Zn263      Zn  0.03402142  0.13607137  0.75032706     1.49110
Zn264      Zn  0.46790337  0.13634667  0.74963043     1.49480
O265        O  0.00057195  0.11693009  0.75609269    -1.83350
O266        O  0.99377689  0.05607970  0.74687022    -0.73980
O267        O  0.03275641  0.10714348  0.83789135    -0.73800
O268        O  0.05526670  0.12384206  0.70214912    -0.73310
O269        O  0.98934234  0.06711359  0.80930302    -0.73990
O270        O  0.03423390  0.08580451  0.68899806    -0.73590
O271        O  0.05947598  0.12624918  0.79459380    -0.74180
O272        O  0.47892769  0.17511473  0.75311529    -0.73570
O273        O  0.46773272  0.11939146  0.84161081    -0.74320
O274        O  0.02343335  0.17522906  0.75024798    -0.73710
O275        O  0.44149648  0.12365945  0.79103805    -0.74180
O276        O  0.44781553  0.12706206  0.69978521    -0.74090
O277        O  0.46904888  0.09021313  0.68303859    -0.73880
C278        C  0.98841175  0.05030196  0.78183794     0.77910
C279        C  0.05579091  0.11435610  0.82684744     0.78400
C280        C  0.05378104  0.10159373  0.68407447     0.77360
C281        C  0.50126501  0.18753450  0.75250136     0.77740
C282        C  0.44476947  0.11797661  0.82665349     0.78870
C283        C  0.44972458  0.10598319  0.67920968     0.77920
Zn284      Zn  0.00025245  0.40264110  0.71912101     1.49720
Zn285      Zn  0.99890374  0.38729135  0.80796201     1.49360
Zn286      Zn  0.46635480  0.35464406  0.75047318     1.49110
Zn287      Zn  0.03268564  0.35464118  0.74979563     1.49480
O288        O  0.99975108  0.37402566  0.75526172    -1.83350
O289        O  0.00093408  0.43638394  0.74735543    -0.73980
O290        O  0.47095814  0.37135937  0.84244001    -0.73800
O291        O  0.44463704  0.36658761  0.70311132    -0.73310
O292        O  0.98729450  0.42367718  0.80575116    -0.73990
O293        O  0.46619647  0.40426157  0.68992148    -0.73590
O294        O  0.44175805  0.36611305  0.79541209    -0.74180
O295        O  0.02148734  0.31567228  0.75022363    -0.73570
O296        O  0.03505952  0.39158984  0.83038598    -0.74320
O297        O  0.47694327  0.31559307  0.75050638    -0.73710
O298        O  0.05976561  0.36649314  0.79138423    -0.74180
O299        O  0.05291757  0.36503897  0.70039356    -0.74090
O300        O  0.03187927  0.40199090  0.68400642    -0.73880
C301        C  0.99172856  0.44141229  0.78090744     0.77910
C302        C  0.44720709  0.37276960  0.83026581     0.78400
C303        C  0.44608373  0.38908213  0.68610517     0.77360
C304        C  0.99912188  0.30325044  0.75013801     0.77740
C305        C  0.05755128  0.38318826  0.81929919     0.78870
C306        C  0.05104437  0.38596409  0.67985875     0.77920
Zn307      Zn  0.14246668  0.49285829  0.54412595     1.49720
Zn308      Zn  0.09774963  0.01907513  0.99643349     1.49360
Zn309      Zn  0.14458477  0.49825098  0.94565431     1.49110
Zn310      Zn  0.10989144  0.45789571  0.98617590     1.49480
O311        O  0.12467415  0.49301805  0.99389213    -1.83350
O312        O  0.13269927  0.02619510  0.57744107    -0.73980
O313        O  0.10068206  0.04518753  0.95423570    -0.73800
O314        O  0.18288042  0.49686272  0.96361607    -0.73310
O315        O  0.09733791  0.03965389  0.54552133    -0.73990
O316        O  0.18159297  0.49186098  0.52877097    -0.73590
O317        O  0.13516854  0.03370732  0.91810132    -0.74180
O318        O  0.12818673  0.43541201  0.94744632    -0.73570
O319        O  0.06357730  0.00188671  0.98778130    -0.74320
O320        O  0.13426414  0.46814738  0.90631397    -0.73710
O321        O  0.07347310  0.46112578  0.96698795    -0.74180
O322        O  0.10670001  0.43774935  0.53427189    -0.74090
O323        O  0.12999201  0.46044632  0.57744206    -0.73880
C324        C  0.11273036  0.04156701  0.57447269     0.77910
C325        C  0.11558514  0.04906079  0.92500617     0.78400
C326        C  0.19434115  0.49392158  0.99649836     0.77360
C327        C  0.12877192  0.44368437  0.91282932     0.77740
C328        C  0.05714211  0.47979608  0.97234794     0.78870
C329        C  0.11498266  0.44067170  0.56868953     0.77920
Zn330      Zn  0.35857149  0.49570082  0.94745498     1.49720
Zn331      Zn  0.40577633  0.01863185  0.49402474     1.49360
Zn332      Zn  0.36024352  0.49607425  0.54573320     1.49110
Zn333      Zn  0.39327125  0.45658473  0.49276897     1.49480
O334        O  0.37855647  0.49227185  0.49564759    -1.83350
O335        O  0.36764523  0.03041076  0.91733401    -0.73980
O336        O  0.40774311  0.04066077  0.54074622    -0.73800
O337        O  0.32110849  0.49546875  0.53096141    -0.73310
O338        O  0.40253003  0.04393456  0.95079432    -0.73990
O339        O  0.32014189  0.49511630  0.96541836    -0.73590
O340        O  0.37141885  0.03137331  0.57446036    -0.74180
O341        O  0.39271879  0.43831175  0.54309613    -0.73570
O342        O  0.43958904  0.00181507  0.48652976    -0.74320
O343        O  0.37013506  0.46485698  0.58258473    -0.73710
O344        O  0.43119774  0.45876988  0.47812637    -0.74180
O345        O  0.37709550  0.43307907  0.95257573    -0.74090
O346        O  0.37004049  0.46505528  0.91043369    -0.73880
C347        C  0.38693519  0.04668091  0.92242662     0.77910
C348        C  0.39233863  0.04555641  0.56896548     0.78400
C349        C  0.30851621  0.49533060  0.49867058     0.77360
C350        C  0.38355433  0.44367818  0.57655671     0.77740
C351        C  0.44707898  0.47842886  0.47870085     0.78870
C352        C  0.37748114  0.44142876  0.91795235     0.77920
C353        C  0.23737065  0.01451697  0.97967687    -0.11490
C354        C  0.22354140  0.49340926  0.99713816     0.05520
C355        C  0.23774937  0.47307810  0.51593576    -0.06780
C356        C  0.26557006  0.47484640  0.51733399    -0.07520
C357        C  0.27935027  0.49589918  0.49962687    -0.02070
C358        C  0.26512897  0.01628710  0.98107522     0.04750
N359        N  0.27834021  0.03926937  0.46492702     0.67250
H360        H  0.22630695  0.03025706  0.96601111     0.16150
H361        H  0.27669202  0.45909641  0.53086693     0.15860
N362        N  0.22454554  0.45003418  0.03186862     0.74960
O363        O  0.26749301  0.05233973  0.93824686    -0.38490
O364        O  0.29919555  0.04849795  0.48026006    -0.38440
O365        O  0.20401348  0.44054001  0.01595021    -0.39140
O366        O  0.23520152  0.43712172  0.55887882    -0.39210
C367        C  0.01686645  0.45293468  0.97589440    -0.11490
C368        C  0.02967078  0.47583294  0.96203593     0.05520
C369        C  0.01505388  0.99714353  0.44701388    -0.06780
C370        C  0.48766435  0.99618178  0.45050218    -0.07520
C371        C  0.47494043  0.47499374  0.96942440    -0.02070
C372        C  0.48940770  0.45251468  0.98083933     0.04750
N373        N  0.47727302  0.43069056  0.00122673     0.67250
H374        H  0.02842924  0.43678382  0.98754691     0.16150
H375        H  0.47618060  0.01275007  0.43997871     0.15860
N376        N  0.02767839  0.02041891  0.43057330     0.74960
O377        O  0.48474134  0.40723826  0.99425436    -0.38490
O378        O  0.46292471  0.43501518  0.53070911    -0.38440
O379        O  0.04998478  0.01885345  0.91394617    -0.39140
O380        O  0.01586867  0.04246161  0.43069530    -0.39210
C381        C  0.09256990  0.41010685  0.66491199    -0.11490
C382        C  0.07206995  0.39323279  0.65189077     0.05520
C383        C  0.06909467  0.38848466  0.61179578    -0.06780
C384        C  0.08543504  0.40247980  0.58567798    -0.07520
C385        C  0.10439385  0.42152050  0.59830839    -0.02070
C386        C  0.10907914  0.42400432  0.63869685     0.04750
N387        N  0.12988922  0.44076904  0.65366525     0.67250
H388        H  0.09500128  0.41335491  0.69585595     0.16150
H389        H  0.08219748  0.39939300  0.55490046     0.15860
N390        N  0.04881276  0.37074500  0.59707539     0.74960
O391        O  0.12639731  0.45368527  0.68483518    -0.38490
O392        O  0.15302064  0.43909521  0.63970037    -0.38440
O393        O  0.04051502  0.35143858  0.61714984    -0.39140
O394        O  0.04042485  0.37315047  0.56278365    -0.39210
C395        C  0.09582392  0.38376854  0.86508204    -0.11490
C396        C  0.08133057  0.39633180  0.83604377     0.05520
C397        C  0.08726279  0.42321540  0.82682925    -0.06780
C398        C  0.10557229  0.43750541  0.84981667    -0.07520
C399        C  0.11826742  0.42575133  0.88150507    -0.02070
C400        C  0.11465032  0.39797191  0.88744122     0.04750
N401        N  0.12936575  0.38411548  0.91659789     0.67250
H402        H  0.09174507  0.36303548  0.87128453     0.16150
H403        H  0.10853392  0.45853368  0.84453550     0.15860
N404        N  0.07407337  0.43662102  0.79546114     0.74960
O405        O  0.11953653  0.36386095  0.93291901    -0.38490
O406        O  0.15332597  0.39016354  0.92283858    -0.38440
O407        O  0.07309867  0.46169600  0.79487198    -0.39140
O408        O  0.06572250  0.42376616  0.76630246    -0.39210
C409        C  0.41639998  0.38674181  0.62859472    -0.11490
C410        C  0.42357616  0.39937242  0.66333990     0.05520
C411        C  0.41174482  0.42405260  0.67336330    -0.06780
C412        C  0.39614837  0.43712511  0.64565317    -0.07520
C413        C  0.39143480  0.42587603  0.60894851    -0.02070
C414        C  0.39992509  0.39940582  0.60160366     0.04750
N415        N  0.39252931  0.38547339  0.56657556     0.67250
H416        H  0.42459556  0.36741498  0.62175044     0.16150
H417        H  0.38898595  0.45695290  0.65186383     0.15860
N418        N  0.41578212  0.43632785  0.71097447     0.74960
O419        O  0.40740560  0.36777817  0.55240588    -0.38490
O420        O  0.36980159  0.38864097  0.55220023    -0.38440
O421        O  0.42182754  0.42247914  0.74002977    -0.39140
O422        O  0.40997147  0.46044455  0.71644101    -0.39210
C423        C  0.43597700  0.41410128  0.86401442    -0.11370
C424        C  0.42763331  0.38846123  0.85330717     0.05520
C425        C  0.40071215  0.38119862  0.85965350    -0.06780
C426        C  0.38371866  0.39945614  0.87895402    -0.07520
C427        C  0.39228946  0.42538420  0.88877417    -0.02070
C428        C  0.41857660  0.43307632  0.87922310     0.04750
N429        N  0.42830518  0.45982317  0.88535251     0.67250
H430        H  0.45633481  0.41997095  0.85881382     0.16150
H431        H  0.36383259  0.39325432  0.88716006     0.15860
N432        N  0.39059116  0.35540258  0.84846449     0.74960
O433        O  0.45277114  0.46391769  0.89036043    -0.38490
O434        O  0.41395457  0.47941311  0.87725066    -0.38440
O435        O  0.40584814  0.33574788  0.84510386    -0.39140
O436        O  0.36598192  0.35179499  0.84399145    -0.39210
C437        C  0.09156081  0.08431216  0.59243066    -0.11490
C438        C  0.10562918  0.06178283  0.60473454     0.05520
C439        C  0.10704437  0.05667298  0.64502486    -0.06780
C440        C  0.09146690  0.07181721  0.67092762    -0.07520
C441        C  0.07537646  0.09260481  0.65791824    -0.02070
C442        C  0.07648900  0.09990371  0.61839043     0.04750
N443        N  0.06118849  0.12170401  0.60366374     0.67250
H444        H  0.09108342  0.08886478  0.56171287     0.16150
H445        H  0.09087562  0.06649048  0.70139500     0.15860
N446        N  0.12256832  0.03526283  0.65990192     0.74960
O447        O  0.05546145  0.12274346  0.56803584    -0.38490
O448        O  0.05537779  0.14120244  0.62526164    -0.38440
O449        O  0.14683096  0.03370728  0.65106623    -0.39140
O450        O  0.11359325  0.02112701  0.68724031    -0.39210
C451        C  0.09290813  0.09198858  0.91471437    -0.11490
C452        C  0.10786922  0.07107233  0.89851693     0.05520
C453        C  0.11048032  0.06961437  0.85755489    -0.06780
C454        C  0.09622895  0.08743213  0.83426747    -0.07520
C455        C  0.07848634  0.10579714  0.85078793    -0.02070
C456        C  0.07792094  0.10910837  0.89154167     0.04750
N457        N  0.06117282  0.12871593  0.90977592     0.67250
H458        H  0.09148642  0.09390378  0.94603402     0.16150
H459        H  0.09641806  0.08454736  0.80301823     0.15860
N460        N  0.12474565  0.04851177  0.83883880     0.74960
O461        O  0.05405307  0.12621523  0.94480922    -0.38490
O462        O  0.05486968  0.14952896  0.89184395    -0.38440
O463        O  0.11807825  0.02463581  0.84488615    -0.39140
O464        O  0.13991330  0.05372527  0.81054696    -0.39210
C465        C  0.39318483  0.06667161  0.63520921    -0.11490
C466        C  0.40058126  0.06748374  0.59590876     0.05520
C467        C  0.41972562  0.08674147  0.58397304    -0.06780
C468        C  0.43414087  0.10099432  0.61204372    -0.07520
C469        C  0.42869258  0.09810011  0.65160568    -0.02070
C470        C  0.40661521  0.08219624  0.66342794     0.04750
N471        N  0.39834402  0.08050949  0.70364625     0.67250
H472        H  0.37796271  0.05266194  0.64420995     0.16150
H473        H  0.45045614  0.11375082  0.60303787     0.15860
N474        N  0.42522682  0.09153036  0.54355332     0.74960
O475        O  0.38027261  0.06436966  0.71365000    -0.38490
O476        O  0.40681105  0.09691242  0.72863481    -0.38440
O477        O  0.40638479  0.09305944  0.51970486    -0.39140
O478        O  0.44844615  0.09735230  0.53239768    -0.39210
C479        C  0.40379972  0.09243685  0.91133051    -0.11490
C480        C  0.39314950  0.06886171  0.89518375     0.05520
C481        C  0.39519032  0.06491413  0.85455749    -0.06780
C482        C  0.40995412  0.08319772  0.83214353    -0.07520
C483        C  0.42282488  0.10532185  0.84911502    -0.02070
C484        C  0.41863565  0.11069468  0.88899235     0.04750
N485        N  0.42993864  0.13396400  0.90739254     0.67250
H486        H  0.40182214  0.09583031  0.94229582     0.16150
H487        H  0.41321871  0.07884172  0.80163577     0.15860
N488        N  0.38483304  0.04133021  0.83617668     0.74960
O489        O  0.43327302  0.13465290  0.94372392    -0.38490
O490        O  0.43438281  0.15479119  0.88804919    -0.38440
O491        O  0.36080631  0.03485336  0.84090070    -0.39140
O492        O  0.39835133  0.02940704  0.81056647    -0.39210
C493        C  0.02265786  0.26047463  0.76033234    -0.11490
C494        C  0.99920617  0.27359806  0.75009043     0.05520
C495        C  0.47639705  0.25805924  0.74142569    -0.06780
C496        C  0.47758442  0.23027332  0.74365377    -0.07520
C497        C  0.50107737  0.21715420  0.75360076    -0.02070
C498        C  0.02381989  0.23266053  0.76266905     0.04750
N499        N  0.04791091  0.22079373  0.77585269     0.67250
H500        H  0.04018028  0.27195493  0.76790440     0.16150
H501        H  0.46004441  0.21881475  0.73608070     0.15860
N502        N  0.45215220  0.26984445  0.72876901     0.74960
O503        O  0.06998990  0.22913487  0.76320451    -0.38490
O504        O  0.04742410  0.20548902  0.80478041    -0.38440
O505        O  0.45206647  0.28395020  0.69856897    -0.39140
O506        O  0.43032850  0.26223902  0.74322321    -0.39210
C507        C  0.99527981  0.01040222  0.81990478    -0.11490
C508        C  0.98155419  0.02304395  0.79012202     0.05520
C509        C  0.46641958  0.00831191  0.76307511    -0.06780
C510        C  0.46844735  0.48088878  0.76323651    -0.07520
C511        C  0.98478538  0.46837874  0.78992172    -0.02070
C512        C  0.99721997  0.48278974  0.82005401     0.04750
N513        N  0.01447186  0.47026591  0.84742124     0.67250
H514        H  0.00666080  0.02205833  0.84064611     0.16150
H515        H  0.45871812  0.46926354  0.74078829     0.15860
N516        N  0.45070927  0.02098449  0.73376376     0.74960
O517        O  0.03627206  0.48113107  0.85629764    -0.38490
O518        O  0.00691647  0.44991094  0.86577717    -0.38440
O519        O  0.44710508  0.00987725  0.70117299    -0.39140
O520        O  0.43905833  0.04256275  0.74113334    -0.39210
Zn521      Zn  0.00011499  0.58874163  0.21877783     1.49720
Zn522      Zn  0.99819306  0.60509874  0.31015761     1.49360
Zn523      Zn  0.03402019  0.63607140  0.25033683     1.49110
Zn524      Zn  0.46790202  0.63634775  0.24964112     1.49480
O525        O  0.00057037  0.61693019  0.25610051    -1.83350
O526        O  0.99377317  0.55608087  0.24687070    -0.73980
O527        O  0.03275455  0.60713912  0.33789761    -0.73800
O528        O  0.05526697  0.62384173  0.20216074    -0.73310
O529        O  0.98933979  0.56711088  0.30930510    -0.73990
O530        O  0.03423215  0.58580643  0.18900284    -0.73590
O531        O  0.05947394  0.62625012  0.29460485    -0.74180
O532        O  0.47892698  0.67511530  0.25312559    -0.73570
O533        O  0.46773215  0.61938809  0.34161970    -0.74320
O534        O  0.02343256  0.67522897  0.25025552    -0.73710
O535        O  0.44149532  0.62366020  0.29104851    -0.74180
O536        O  0.44781282  0.62706547  0.19979679    -0.74090
O537        O  0.46904591  0.59021794  0.18304275    -0.73880
C538        C  0.98840837  0.55030100  0.28183775     0.77910
C539        C  0.05578877  0.61435453  0.32685645     0.78400
C540        C  0.05378069  0.60159454  0.18408326     0.77360
C541        C  0.50126444  0.68753467  0.25250932     0.77740
C542        C  0.44476866  0.61797508  0.32666304     0.78870
C543        C  0.44972129  0.60598816  0.17921784     0.77920
Zn544      Zn  0.00025365  0.90263974  0.21911398     1.49720
Zn545      Zn  0.99890414  0.88729114  0.30795588     1.49360
Zn546      Zn  0.46635536  0.85464361  0.25046686     1.49110
Zn547      Zn  0.03268651  0.85464050  0.24979220     1.49480
O548        O  0.99975173  0.87402498  0.25525610    -1.83350
O549        O  0.00093534  0.93638291  0.24734643    -0.73980
O550        O  0.47095826  0.87136075  0.34243481    -0.73800
O551        O  0.44463632  0.86658909  0.20310684    -0.73310
O552        O  0.98729527  0.92367652  0.30574205    -0.73990
O553        O  0.46619750  0.90426172  0.18991529    -0.73590
O554        O  0.44175881  0.86611063  0.29540661    -0.74180
O555        O  0.02148796  0.81567189  0.25022007    -0.73570
O556        O  0.03505945  0.89159060  0.33038062    -0.74320
O557        O  0.47694391  0.81559278  0.25049950    -0.73710
O558        O  0.05976573  0.86649189  0.29138210    -0.74180
O559        O  0.05292012  0.86503836  0.20039172    -0.74090
O560        O  0.03188097  0.90198900  0.18400073    -0.73880
C561        C  0.99172875  0.94141131  0.28089769     0.77910
C562        C  0.44720711  0.87276803  0.33026018     0.78400
C563        C  0.44608358  0.88908369  0.18610091     0.77360
C564        C  0.99912246  0.80325016  0.25013323     0.77740
C565        C  0.05755123  0.88318809  0.31929561     0.78870
C566        C  0.05104692  0.88596292  0.17985573     0.77920
Zn567      Zn  0.14246819  0.99286303  0.04413058     1.49720
Zn568      Zn  0.09774415  0.51906304  0.49642889     1.49360
Zn569      Zn  0.14458528  0.99824736  0.44565285     1.49110
Zn570      Zn  0.10989492  0.95788651  0.48616971     1.49480
O571        O  0.12467309  0.99301081  0.49388800    -1.83350
O572        O  0.13270167  0.52619815  0.07745049    -0.73980
O573        O  0.10067674  0.54517744  0.45423390    -0.73800
O574        O  0.18288107  0.99685888  0.46361515    -0.73310
O575        O  0.09734637  0.53966617  0.04552529    -0.73990
O576        O  0.18159351  0.99186637  0.02877263    -0.73590
O577        O  0.13516842  0.53370510  0.41810455    -0.74180
O578        O  0.12819588  0.93540718  0.44744006    -0.73570
O579        O  0.06357378  0.50187054  0.48777086    -0.74320
O580        O  0.13426520  0.96814539  0.40631021    -0.73710
O581        O  0.07347644  0.96111149  0.46697695    -0.74180
O582        O  0.10669662  0.93775835  0.03427732    -0.74090
O583        O  0.12999581  0.96044926  0.07744540    -0.73880
C584        C  0.11273601  0.54157411  0.07448037     0.77910
C585        C  0.11558233  0.54905535  0.42500840     0.78400
C586        C  0.19434135  0.99391685  0.49649760     0.77360
C587        C  0.12877634  0.94368143  0.41282381     0.77740
C588        C  0.05714246  0.97977946  0.47233507     0.78870
C589        C  0.11498343  0.94067690  0.06869327     0.77920
Zn590      Zn  0.35857188  0.99569324  0.44745240     1.49720
Zn591      Zn  0.40576992  0.51864649  0.99403097     1.49360
Zn592      Zn  0.36024021  0.99608340  0.04574004     1.49110
Zn593      Zn  0.39327167  0.95659748  0.99277782     1.49480
O594        O  0.37855364  0.99228290  0.99565365    -1.83350
O595        O  0.36764607  0.53040423  0.41733504    -0.73980
O596        O  0.40773175  0.54067758  0.04074905    -0.73800
O597        O  0.32110632  0.99547642  0.03096409    -0.73310
O598        O  0.40253403  0.54392357  0.45079234    -0.73990
O599        O  0.32014238  0.99510949  0.46541636    -0.73590
O600        O  0.37141262  0.53138268  0.07446991    -0.74180
O601        O  0.39271799  0.93832343  0.04310297    -0.73570
O602        O  0.43958462  0.50183371  0.98654731    -0.74320
O603        O  0.37013177  0.96486564  0.08259235    -0.73710
O604        O  0.43119832  0.95878753  0.97814396    -0.74180
O605        O  0.37708759  0.93306941  0.45256883    -0.74090
O606        O  0.37003834  0.96504858  0.41042958    -0.73880
C607        C  0.38693716  0.54667299  0.42242763     0.77910
C608        C  0.39232943  0.54556961  0.06897186     0.78400
C609        C  0.30851504  0.99533750  0.99867237     0.77360
C610        C  0.38355226  0.94368772  0.07656331     0.77740
C611        C  0.44707745  0.97844807  0.97872181     0.78870
C612        C  0.37747557  0.94142070  0.41794617     0.77920
C613        C  0.23737168  0.51451144  0.47967607    -0.11490
C614        C  0.22354187  0.99340429  0.49713828     0.05520
C615        C  0.23774906  0.97308301  0.01593522    -0.06780
C616        C  0.26556960  0.97485179  0.01733358    -0.07520
C617        C  0.27934931  0.99590521  0.99962739    -0.02070
C618        C  0.26513013  0.51628098  0.48107404     0.04750
N619        N  0.27833868  0.53927621  0.96492943     0.67250
H620        H  0.22630831  0.53025148  0.46600965     0.16150
H621        H  0.27669185  0.95910186  0.03086619     0.15860
N622        N  0.22454551  0.95002957  0.53186968     0.74960
O623        O  0.26749482  0.55233233  0.43824343    -0.38490
O624        O  0.29919379  0.54850479  0.98026312    -0.38440
O625        O  0.20401359  0.94053531  0.51595100    -0.39140
O626        O  0.23520173  0.93712620  0.05887762    -0.39210
C627        C  0.01686803  0.95291469  0.47587255    -0.11490
C628        C  0.02967232  0.97581366  0.46201633     0.05520
C629        C  0.01505252  0.49716425  0.94703780    -0.06780
C630        C  0.48766336  0.49620385  0.95052957    -0.07520
C631        C  0.47494120  0.97497211  0.46939791    -0.02070
C632        C  0.48940881  0.95249340  0.48081368     0.04750
N633        N  0.47727397  0.93066861  0.50119920     0.67250
H634        H  0.02843081  0.93676452  0.48752710     0.16150
H635        H  0.47617989  0.51277275  0.94000743     0.15860
N636        N  0.02767708  0.52043957  0.93059768     0.74960
O637        O  0.48474192  0.90721653  0.49422431    -0.38490
O638        O  0.46292266  0.93503813  0.03073558    -0.38440
O639        O  0.04999025  0.51883480  0.41393332    -0.39140
O640        O  0.01587138  0.54248451  0.93073294    -0.39210
C641        C  0.09257218  0.91010722  0.16491298    -0.11490
C642        C  0.07207356  0.89323219  0.15188985     0.05520
C643        C  0.06909981  0.88848443  0.11179459    -0.06780
C644        C  0.08543977  0.90248131  0.08567831    -0.07520
C645        C  0.10439654  0.92152352  0.09831057    -0.02070
C646        C  0.10908105  0.92400647  0.13869932     0.04750
N647        N  0.12988959  0.94077234  0.15366951     0.67250
H648        H  0.09500247  0.91335490  0.19585721     0.16150
H649        H  0.08220336  0.89939474  0.05490048     0.15860
N650        N  0.04881962  0.87074348  0.09707247     0.74960
O651        O  0.12639597  0.95368774  0.18483976    -0.38490
O652        O  0.15302163  0.93909981  0.13970646    -0.38440
O653        O  0.04052279  0.85143617  0.11714588    -0.39140
O654        O  0.04043237  0.87314886  0.06278037    -0.39210
C655        C  0.09582566  0.88376732  0.36507540    -0.11490
C656        C  0.08133049  0.89633171  0.33604014     0.05520
C657        C  0.08726202  0.92321572  0.32682714    -0.06780
C658        C  0.10557242  0.93750498  0.34981401    -0.07520
C659        C  0.11826956  0.92574962  0.38149967    -0.02070
C660        C  0.11465326  0.89796990  0.38743346     0.04750
N661        N  0.12937110  0.88411222  0.41658617     0.67250
H662        H  0.09174763  0.86303385  0.37127618     0.16150
H663        H  0.10853368  0.95853347  0.34453429     0.15860
N664        N  0.07407179  0.93662225  0.29546048     0.74960
O665        O  0.11954316  0.86385706  0.43290725    -0.38490
O666        O  0.15333203  0.89015960  0.42282239    -0.38440
O667        O  0.07309973  0.96169734  0.29487054    -0.39140
O668        O  0.06571843  0.92376794  0.26630283    -0.39210
C669        C  0.41639801  0.88674777  0.12859232    -0.11490
C670        C  0.42357532  0.89937595  0.16333876     0.05520
C671        C  0.41174458  0.92405580  0.17336624    -0.06780
C672        C  0.39614748  0.93713038  0.14565875    -0.07520
C673        C  0.39143265  0.92588363  0.10895298    -0.02070
C674        C  0.39992251  0.89941376  0.10160409     0.04750
N675        N  0.39252607  0.88548381  0.06657421     0.67250
H676        H  0.42459320  0.86742130  0.12174476     0.16150
H677        H  0.38898563  0.95695798  0.15187221     0.15860
N678        N  0.41578302  0.93632865  0.21097885     0.74960
O679        O  0.40740231  0.86778991  0.05240081    -0.38490
O680        O  0.36979817  0.88865260  0.05220009    -0.38440
O681        O  0.42183128  0.92247840  0.24003126    -0.39140
O682        O  0.40997064  0.96044447  0.21644990    -0.39210
C683        C  0.43596952  0.91410191  0.36399636    -0.11370
C684        C  0.42763178  0.88845801  0.35330044     0.05520
C685        C  0.40071326  0.88118898  0.35965685    -0.06780
C686        C  0.38371805  0.89944453  0.37895768    -0.07520
C687        C  0.39228312  0.92537628  0.38876703    -0.02070
C688        C  0.41856650  0.93307441  0.37920380     0.04750
N689        N  0.42828790  0.95982501  0.38531986     0.67250
H690        H  0.45632704  0.91997736  0.35878682     0.16150
H691        H  0.36383397  0.89323817  0.38717256     0.15860
N692        N  0.39059729  0.85538911  0.34847710     0.74960
O693        O  0.45275253  0.96392666  0.39033086    -0.38490
O694        O  0.41393414  0.97940860  0.37719832    -0.38440
O695        O  0.40585911  0.83573860  0.34511216    -0.39140
O696        O  0.36598805  0.85177443  0.34401434    -0.39210
C697        C  0.09156894  0.58431966  0.09244334    -0.11490
C698        C  0.10563434  0.56178786  0.10474510     0.05520
C699        C  0.10704456  0.55667335  0.14503456    -0.06780
C700        C  0.09146490  0.57181551  0.17093714    -0.07520
C701        C  0.07537728  0.59260565  0.15792888    -0.02070
C702        C  0.07649503  0.59990917  0.11840317     0.04750
N703        N  0.06119766  0.62171215  0.10367790     0.67250
H704        H  0.09109533  0.58887581  0.06172653     0.16150
H705        H  0.09086998  0.56648550  0.20140316     0.15860
N706        N  0.12256592  0.53526086  0.15991035     0.74960
O707        O  0.05547449  0.62275575  0.06804895    -0.38490
O708        O  0.05538607  0.64120878  0.12527876    -0.38440
O709        O  0.14682919  0.53370464  0.15107877    -0.39140
O710        O  0.11358765  0.52112302  0.18724432    -0.39210
C711        C  0.09290345  0.59198260  0.41472263    -0.11490
C712        C  0.10786667  0.57106881  0.39852271     0.05520
C713        C  0.11048020  0.56961481  0.35756076    -0.06780
C714        C  0.09622889  0.58743375  0.33427525    -0.07520
C715        C  0.07848402  0.60579587  0.35079736    -0.02070
C716        C  0.07791631  0.60910347  0.39155165     0.04750
N717        N  0.06116575  0.62870811  0.40978787     0.67250
H718        H  0.09147996  0.59389476  0.44604250     0.16150
H719        H  0.09641978  0.58455182  0.30302549     0.15860
N720        N  0.12474800  0.54851487  0.33884222     0.74960
O721        O  0.05404468  0.62620388  0.44482005    -0.38490
O722        O  0.05486161  0.64952209  0.39185903    -0.38440
O723        O  0.11808286  0.52463784  0.34488576    -0.39140
O724        O  0.13991601  0.55373180  0.31055214    -0.39210
C725        C  0.39317721  0.56668248  0.13521703    -0.11490
C726        C  0.40057238  0.56749626  0.09591618     0.05520
C727        C  0.41971743  0.58675365  0.08398134    -0.06780
C728        C  0.43413485  0.60100360  0.11205265    -0.07520
C729        C  0.42868801  0.59810722  0.15161463    -0.02070
C730        C  0.40660966  0.58220451  0.16343668     0.04750
N731        N  0.39833933  0.58051617  0.20365528     0.67250
H732        H  0.37795464  0.55267314  0.14421724     0.16150
H733        H  0.45045066  0.61375950  0.10304705     0.15860
N734        N  0.42521803  0.59154428  0.04356187     0.74960
O735        O  0.38026378  0.56438039  0.21365699    -0.38490
O736        O  0.40681172  0.59691418  0.22864674    -0.38440
O737        O  0.40637560  0.59307720  0.01971464    -0.39140
O738        O  0.44843798  0.59736287  0.03240531    -0.39210
C739        C  0.40380052  0.59242996  0.41133776    -0.11490
C740        C  0.39315014  0.56885591  0.39518802     0.05520
C741        C  0.39518967  0.56491133  0.35456109    -0.06780
C742        C  0.40995292  0.58319649  0.33214922    -0.07520
C743        C  0.42282416  0.60531936  0.34912341    -0.02070
C744        C  0.41863589  0.61068940  0.38900171     0.04750
N745        N  0.42993946  0.63395732  0.40740492     0.67250
H746        H  0.40182353  0.59582124  0.44230353     0.16150
H747        H  0.41321688  0.57884257  0.30164071     0.15860
N748        N  0.38483155  0.54132888  0.33617718     0.74960
O749        O  0.43327436  0.63464372  0.44373627    -0.38490
O750        O  0.43438375  0.65478575  0.38806445    -0.38440
O751        O  0.36080515  0.53485140  0.34090301    -0.39140
O752        O  0.39834843  0.52940812  0.31056294    -0.39210
C753        C  0.02265849  0.76047476  0.26033003    -0.11490
C754        C  0.99920666  0.77359785  0.25008779     0.05520
C755        C  0.47639712  0.75805878  0.24142628    -0.06780
C756        C  0.47758415  0.73027306  0.24365805    -0.07520
C757        C  0.50107718  0.71715430  0.25360556    -0.02070
C758        C  0.02382021  0.73266085  0.26267030     0.04750
N759        N  0.04791149  0.72079449  0.27585383     0.67250
H760        H  0.04018129  0.77195524  0.26789971     0.16150
H761        H  0.46004378  0.71881428  0.23608740     0.15860
N762        N  0.45215209  0.76984351  0.22876944     0.74960
O763        O  0.06999020  0.72913450  0.26320307    -0.38490
O764        O  0.04742536  0.70549134  0.30478334    -0.38440
O765        O  0.45206566  0.78394703  0.19856718    -0.39140
O766        O  0.43032871  0.76223954  0.24322630    -0.39210
C767        C  0.99527536  0.51039955  0.31990136    -0.11490
C768        C  0.98155090  0.52304242  0.29011839     0.05520
C769        C  0.46641818  0.50831121  0.26306833    -0.06780
C770        C  0.46844854  0.98088807  0.26322364    -0.07520
C771        C  0.98478454  0.96837744  0.28991135    -0.02070
C772        C  0.99721588  0.98278720  0.32004732     0.04750
N773        N  0.01446601  0.97026213  0.34741524     0.67250
H774        H  0.00665507  0.52205465  0.34064537     0.16150
H775        H  0.45872189  0.96926357  0.24077225     0.15860
N776        N  0.45070796  0.52098472  0.23375772     0.74960
O777        O  0.03627029  0.98112181  0.35628404    -0.38490
O778        O  0.00690598  0.94991168  0.36577792    -0.38440
O779        O  0.44710415  0.50987867  0.20116601    -0.39140
O780        O  0.43905586  0.54256203  0.24112939    -0.39210
Zn781      Zn  0.00011747  0.58873917  0.71877427     1.49720
Zn782      Zn  0.99819475  0.60510173  0.81015145     1.49360
Zn783      Zn  0.03402141  0.63607128  0.75032705     1.49110
Zn784      Zn  0.46790335  0.63634660  0.74963043     1.49480
O785        O  0.00057196  0.61693000  0.75609280    -1.83350
O786        O  0.99377684  0.55607959  0.74687069    -0.73980
O787        O  0.03275644  0.60714363  0.83789151    -0.73800
O788        O  0.05526661  0.62384193  0.70214906    -0.73310
O789        O  0.98934238  0.56711365  0.80930345    -0.73990
O790        O  0.03423388  0.58580428  0.68899831    -0.73590
O791        O  0.05947601  0.62624908  0.79459372    -0.74180
O792        O  0.47892767  0.67511465  0.75311528    -0.73570
O793        O  0.46773262  0.61939162  0.84161086    -0.74320
O794        O  0.02343337  0.67522898  0.75024797    -0.73710
O795        O  0.44149644  0.62365942  0.79103799    -0.74180
O796        O  0.44781558  0.62706198  0.69978519    -0.74090
O797        O  0.46904879  0.59021291  0.68303890    -0.73880
C798        C  0.98841174  0.55030195  0.78183846     0.77910
C799        C  0.05579095  0.61435612  0.82684746     0.78400
C800        C  0.05378097  0.60159354  0.68407455     0.77360
C801        C  0.50126500  0.68753441  0.75250134     0.77740
C802        C  0.44476940  0.61797667  0.82665348     0.78870
C803        C  0.44972456  0.60598303  0.67920981     0.77920
Zn804      Zn  0.00025249  0.90264092  0.71912082     1.49720
Zn805      Zn  0.99890370  0.88729140  0.80796185     1.49360
Zn806      Zn  0.46635480  0.85464399  0.75047322     1.49110
Zn807      Zn  0.03268566  0.85464108  0.74979573     1.49480
O808        O  0.99975108  0.87402556  0.75526166    -1.83350
O809        O  0.00093430  0.93638380  0.74735509    -0.73980
O810        O  0.47095818  0.87135948  0.84244001    -0.73800
O811        O  0.44463702  0.86658754  0.70311138    -0.73310
O812        O  0.98729439  0.92367719  0.80575073    -0.73990
O813        O  0.46619650  0.90426146  0.68992145    -0.73590
O814        O  0.44175806  0.86611301  0.79541216    -0.74180
O815        O  0.02148734  0.81567219  0.75022372    -0.73570
O816        O  0.03505947  0.89159001  0.83038578    -0.74320
O817        O  0.47694328  0.81559299  0.75050645    -0.73710
O818        O  0.05976558  0.86649305  0.79138440    -0.74180
O819        O  0.05291769  0.86503885  0.70039371    -0.74090
O820        O  0.03187926  0.90199061  0.68400617    -0.73880
C821        C  0.99172863  0.94141224  0.78090697     0.77910
C822        C  0.44720712  0.87276964  0.83026585     0.78400
C823        C  0.44608372  0.88908206  0.68610521     0.77360
C824        C  0.99912188  0.80325035  0.75013807     0.77740
C825        C  0.05755123  0.88318832  0.81929918     0.78870
C826        C  0.05104444  0.88596387  0.67985871     0.77920
Zn827      Zn  0.14246667  0.99285828  0.54412610     1.49720
Zn828      Zn  0.09774971  0.51907517  0.99643347     1.49360
Zn829      Zn  0.14458473  0.99825101  0.94565435     1.49110
Zn830      Zn  0.10989142  0.95789568  0.98617590     1.49480
O831        O  0.12467410  0.99301805  0.99389215    -1.83350
O832        O  0.13269926  0.52619509  0.57744093    -0.73980
O833        O  0.10068214  0.54518755  0.95423566    -0.73800
O834        O  0.18288039  0.99686274  0.96361610    -0.73310
O835        O  0.09733787  0.53965384  0.54552124    -0.73990
O836        O  0.18159296  0.99186096  0.52877111    -0.73590
O837        O  0.13516859  0.53370729  0.91810125    -0.74180
O838        O  0.12818675  0.93541202  0.94744632    -0.73570
O839        O  0.06357736  0.50188678  0.98778134    -0.74320
O840        O  0.13426410  0.96814742  0.90631399    -0.73710
O841        O  0.07347309  0.96112573  0.96698792    -0.74180
O842        O  0.10670005  0.93774931  0.53427200    -0.74090
O843        O  0.12999201  0.96044628  0.57744221    -0.73880
C844        C  0.11273033  0.54156697  0.57447259     0.77910
C845        C  0.11558521  0.54906078  0.92500611     0.78400
C846        C  0.19434111  0.99392158  0.99649839     0.77360
C847        C  0.12877190  0.94368440  0.91282932     0.77740
C848        C  0.05714208  0.97979600  0.97234789     0.78870
C849        C  0.11498268  0.94067165  0.56868964     0.77920
Zn850      Zn  0.35857149  0.99570083  0.94745509     1.49720
Zn851      Zn  0.40577632  0.51863186  0.49402466     1.49360
Zn852      Zn  0.36024352  0.99607425  0.54573330     1.49110
Zn853      Zn  0.39327121  0.95658470  0.49276906     1.49480
O854        O  0.37855646  0.99227185  0.49564769    -1.83350
O855        O  0.36764521  0.53041075  0.91733391    -0.73980
O856        O  0.40774312  0.54066074  0.54074616    -0.73800
O857        O  0.32110849  0.99546874  0.53096152    -0.73310
O858        O  0.40252999  0.54393458  0.95079423    -0.73990
O859        O  0.32014187  0.99511631  0.96541844    -0.73590
O860        O  0.37141886  0.53137329  0.57446031    -0.74180
O861        O  0.39271875  0.93831172  0.54309623    -0.73570
O862        O  0.43958904  0.50181512  0.48652967    -0.74320
O863        O  0.37013507  0.96485700  0.58258485    -0.73710
O864        O  0.43119770  0.95876984  0.47812644    -0.74180
O865        O  0.37709548  0.93307907  0.95257585    -0.74090
O866        O  0.37004052  0.96505529  0.91043381    -0.73880
C867        C  0.38693515  0.54668092  0.92242653     0.77910
C868        C  0.39233864  0.54555637  0.56896543     0.78400
C869        C  0.30851621  0.99533059  0.49867069     0.77360
C870        C  0.38355431  0.94367817  0.57655682     0.77740
C871        C  0.44707895  0.97842881  0.47870093     0.78870
C872        C  0.37748115  0.94142876  0.91795247     0.77920
C873        C  0.23737067  0.51451698  0.97967685    -0.11490
C874        C  0.22354137  0.99340927  0.99713819     0.05520
C875        C  0.23774937  0.97307809  0.51593589    -0.06780
C876        C  0.26557006  0.97484639  0.51733410    -0.07520
C877        C  0.27935026  0.99589917  0.49962698    -0.02070
C878        C  0.26512900  0.51628711  0.98107519     0.04750
N879        N  0.27834022  0.53926938  0.46492686     0.67250
H880        H  0.22630697  0.53025706  0.96601111     0.16150
H881        H  0.27669202  0.95909639  0.53086703     0.15860
N882        N  0.22454550  0.95003420  0.03186868     0.74960
O883        O  0.26749302  0.55233976  0.93824686    -0.38490
O884        O  0.29919556  0.54849795  0.48025990    -0.38440
O885        O  0.20401344  0.94054002  0.01595027    -0.39140
O886        O  0.23520152  0.93712170  0.55887894    -0.39210
C887        C  0.01686642  0.95293458  0.97589427    -0.11490
C888        C  0.02967075  0.97583284  0.96203581     0.05520
C889        C  0.01505391  0.49714355  0.44701363    -0.06780
C890        C  0.48766437  0.49618187  0.45050213    -0.07520
C891        C  0.47494040  0.97499371  0.96942456    -0.02070
C892        C  0.48940767  0.95251466  0.98083952     0.04750
N893        N  0.47727297  0.93069054  0.00122691     0.67250
H894        H  0.02842921  0.93678373  0.98754682     0.16150
H895        H  0.47618062  0.51275017  0.43997870     0.15860
N896        N  0.02767841  0.52041893  0.43057307     0.74960
O897        O  0.48474130  0.90723824  0.99425455    -0.38490
O898        O  0.46292464  0.93501514  0.53070922    -0.38440
O899        O  0.04998476  0.51885357  0.91394628    -0.39140
O900        O  0.01586869  0.54246163  0.43069508    -0.39210
C901        C  0.09256998  0.91010664  0.66491203    -0.11490
C902        C  0.07207004  0.89323257  0.65189077     0.05520
C903        C  0.06909476  0.88848449  0.61179576    -0.06780
C904        C  0.08543512  0.90247968  0.58567800    -0.07520
C905        C  0.10439390  0.92152041  0.59830846    -0.02070
C906        C  0.10907919  0.92400418  0.63869693     0.04750
N907        N  0.12988923  0.94076892  0.65366537     0.67250
H908        H  0.09500134  0.91335467  0.69585599     0.16150
H909        H  0.08219757  0.89939292  0.55490048     0.15860
N910        N  0.04881288  0.87074482  0.59707533     0.74960
O911        O  0.12639729  0.95368511  0.68483534    -0.38490
O912        O  0.15302066  0.93909516  0.63970049    -0.38440
O913        O  0.04051515  0.85143838  0.61714975    -0.39140
O914        O  0.04042498  0.87315030  0.56278359    -0.39210
C915        C  0.09582388  0.88376859  0.86508202    -0.11490
C916        C  0.08133052  0.89633186  0.83604378     0.05520
C917        C  0.08726274  0.92321546  0.82682927    -0.06780
C918        C  0.10557224  0.93750547  0.84981669    -0.07520
C919        C  0.11826739  0.92575137  0.88150507    -0.02070
C920        C  0.11465029  0.89797195  0.88744120     0.04750
N921        N  0.12936573  0.88411551  0.91659785     0.67250
H922        H  0.09174505  0.86303552  0.87128449     0.16150
H923        H  0.10853387  0.95853374  0.84453554     0.15860
N924        N  0.07407332  0.93662108  0.79546116     0.74960
O925        O  0.11953651  0.86386097  0.93291897    -0.38490
O926        O  0.15332596  0.89016355  0.92283850    -0.38440
O927        O  0.07309861  0.96169607  0.79487201    -0.39140
O928        O  0.06572248  0.92376623  0.76630247    -0.39210
C929        C  0.41639990  0.88674176  0.62859484    -0.11490
C930        C  0.42357614  0.89937237  0.66333998     0.05520
C931        C  0.41174487  0.92405259  0.67336337    -0.06780
C932        C  0.39614842  0.93712512  0.64565326    -0.07520
C933        C  0.39143479  0.92587603  0.60894863    -0.02070
C934        C  0.39992501  0.89940580  0.60160380     0.04750
N935        N  0.39252917  0.88547336  0.56657573     0.67250
H936        H  0.42459542  0.86741491  0.62175056     0.16150
H937        H  0.38898605  0.95695293  0.65186391     0.15860
N938        N  0.41578225  0.93632786  0.71097451     0.74960
O939        O  0.40740541  0.86777810  0.55240604    -0.38490
O940        O  0.36980145  0.88864100  0.55220042    -0.38440
O941        O  0.42182765  0.92247916  0.74002982    -0.39140
O942        O  0.40997171  0.96044460  0.71644101    -0.39210
C943        C  0.43597697  0.91410137  0.86401432    -0.11370
C944        C  0.42763333  0.88846127  0.85330720     0.05520
C945        C  0.40071221  0.88119859  0.85965371    -0.06780
C946        C  0.38371871  0.89945609  0.87895425    -0.07520
C947        C  0.39228946  0.92538419  0.88877428    -0.02070
C948        C  0.41857655  0.93307637  0.87922307     0.04750
N949        N  0.42830508  0.95982324  0.88535243     0.67250
H950        H  0.45633473  0.91997109  0.85881359     0.16150
H951        H  0.36383269  0.89325423  0.88716040     0.15860
N952        N  0.39059128  0.85540250  0.84846484     0.74960
O953        O  0.45277102  0.96391781  0.89036050    -0.38490
O954        O  0.41395447  0.97941314  0.87725038    -0.38440
O955        O  0.40584830  0.83574785  0.84510420    -0.39140
O956        O  0.36598203  0.85179483  0.84399196    -0.39210
C957        C  0.09156073  0.58431207  0.59243067    -0.11490
C958        C  0.10562912  0.56178274  0.60473449     0.05520
C959        C  0.10704430  0.55667283  0.64502479    -0.06780
C960        C  0.09146681  0.57181702  0.67092760    -0.07520
C961        C  0.07537636  0.59260462  0.65791826    -0.02070
C962        C  0.07648890  0.59990357  0.61839048     0.04750
N963        N  0.06118837  0.62170387  0.60366383     0.67250
H964        H  0.09108334  0.58886473  0.56171289     0.16150
H965        H  0.09087552  0.56649024  0.70139496     0.15860
N966        N  0.12256827  0.53526267  0.65990180     0.74960
O967        O  0.05546127  0.62274332  0.56803596    -0.38490
O968        O  0.05537772  0.64120231  0.62526174    -0.38440
O969        O  0.14683091  0.53370716  0.65106613    -0.39140
O970        O  0.11359320  0.52112680  0.68724014    -0.39210
C971        C  0.09290828  0.59198861  0.91471431    -0.11490
C972        C  0.10786930  0.57107231  0.89851686     0.05520
C973        C  0.11048033  0.56961431  0.85755481    -0.06780
C974        C  0.09622896  0.58743207  0.83426741    -0.07520
C975        C  0.07848641  0.60579713  0.85078789    -0.02070
C976        C  0.07792108  0.60910841  0.89154163     0.04750
N977        N  0.06117303  0.62871602  0.90977590     0.67250
H978        H  0.09148662  0.59390384  0.94603396     0.16150
H979        H  0.09641800  0.58454728  0.80301818     0.15860
N980        N  0.12474558  0.54851166  0.83883871     0.74960
O981        O  0.05405334  0.62621537  0.94480923    -0.38490
O982        O  0.05486991  0.64952905  0.89184391    -0.38440
O983        O  0.11807816  0.52463572  0.84488617    -0.39140
O984        O  0.13991318  0.55372510  0.81054679    -0.39210
C985        C  0.39318484  0.56667155  0.63520919    -0.11490
C986        C  0.40058130  0.56748367  0.59590875     0.05520
C987        C  0.41972571  0.58674137  0.58397307    -0.06780
C988        C  0.43414095  0.60099420  0.61204380    -0.07520
C989        C  0.42869261  0.59809999  0.65160573    -0.02070
C990        C  0.40661521  0.58219615  0.66342794     0.04750
N991        N  0.39834400  0.58050943  0.70364624     0.67250
H992        H  0.37796267  0.55266192  0.64420990     0.16150
H993        H  0.45045625  0.61375067  0.60303799     0.15860
N994        N  0.42522699  0.59153024  0.54355338     0.74960
O995        O  0.38027298  0.56436921  0.71365013    -0.38490
O996        O  0.40681056  0.59691276  0.72863458    -0.38440
O997        O  0.40638500  0.59305941  0.51970486    -0.39140
O998        O  0.44844636  0.59735207  0.53239781    -0.39210
C999        C  0.40379962  0.59243688  0.91133045    -0.11490
C1000       C  0.39314944  0.56886173  0.89518368     0.05520
C1001       C  0.39519027  0.56491416  0.85455742    -0.06780
C1002       C  0.40995405  0.58319776  0.83214347    -0.07520
C1003       C  0.42282480  0.60532190  0.84911498    -0.02070
C1004       C  0.41863555  0.61069473  0.88899230     0.04750
N1005       N  0.42993850  0.63396405  0.90739250     0.67250
H1006       H  0.40182203  0.59583034  0.94229576     0.16150
H1007       H  0.41321864  0.57884178  0.80163571     0.15860
N1008       N  0.38483301  0.54133023  0.83617660     0.74960
O1009       O  0.43327288  0.63465296  0.94372388    -0.38490
O1010       O  0.43438264  0.65479126  0.88804916    -0.38440
O1011       O  0.36080628  0.53485337  0.84090058    -0.39140
O1012       O  0.39835133  0.52940704  0.81056645    -0.39210
C1013       C  0.02265786  0.76047455  0.76033246    -0.11490
C1014       C  0.99920618  0.77359797  0.75009049     0.05520
C1015       C  0.47639705  0.75805916  0.74142574    -0.06780
C1016       C  0.47758442  0.73027324  0.74365378    -0.07520
C1017       C  0.50107737  0.71715411  0.75360077    -0.02070
C1018       C  0.02381989  0.73266044  0.76266915     0.04750
N1019       N  0.04791089  0.72079364  0.77585285     0.67250
H1020       H  0.04018027  0.77195485  0.76790458     0.16150
H1021       H  0.46004441  0.71881467  0.73608069     0.15860
N1022       N  0.45215220  0.76984438  0.72876907     0.74960
O1023       O  0.06998990  0.72913481  0.76320479    -0.38490
O1024       O  0.04742403  0.70548889  0.80478054    -0.38440
O1025       O  0.45206647  0.78395013  0.69856903    -0.39140
O1026       O  0.43032850  0.76223896  0.74322327    -0.39210
C1027       C  0.99527991  0.51040223  0.81990532    -0.11490
C1028       C  0.98155414  0.52304397  0.79012271     0.05520
C1029       C  0.46641927  0.50831196  0.76307615    -0.06780
C1030       C  0.46844769  0.98088874  0.76323551    -0.07520
C1031       C  0.98478547  0.96837872  0.78992107    -0.02070
C1032       C  0.99721989  0.98278973  0.82005350     0.04750
N1033       N  0.01447165  0.97026591  0.84742092     0.67250
H1034       H  0.00666102  0.52205834  0.84064651     0.16150
H1035       H  0.45871861  0.96926349  0.74078714     0.15860
N1036       N  0.45070878  0.52098457  0.73376502     0.74960
O1037       O  0.03627183  0.98113106  0.85629749    -0.38490
O1038       O  0.00691616  0.94991097  0.86577684    -0.38440
O1039       O  0.44710427  0.50987729  0.70117436    -0.39140
O1040       O  0.43905806  0.54256293  0.74113469    -0.39210
Zn1041     Zn  0.50011499  0.08874176  0.21877763     1.49720
Zn1042     Zn  0.49819303  0.10509867  0.31015748     1.49360
Zn1043     Zn  0.53402020  0.13607145  0.25033686     1.49110
Zn1044     Zn  0.96790200  0.13634778  0.24964114     1.49480
O1045       O  0.50057036  0.11693024  0.25610045    -1.83350
O1046       O  0.49377319  0.05608094  0.24687034    -0.73980
O1047       O  0.53275452  0.10713898  0.33789750    -0.73800
O1048       O  0.55526703  0.12384182  0.20216080    -0.73310
O1049       O  0.48933973  0.06711082  0.30930477    -0.73990
O1050       O  0.53423215  0.08580659  0.18900265    -0.73590
O1051       O  0.55947391  0.12625017  0.29460493    -0.74180
O1052       O  0.97892697  0.17511534  0.25312562    -0.73570
O1053       O  0.96773217  0.11938801  0.34161970    -0.74320
O1054       O  0.52343255  0.17522902  0.25025555    -0.73710
O1055       O  0.94149532  0.12366021  0.29104856    -0.74180
O1056       O  0.94781278  0.12706551  0.19979682    -0.74090
O1057       O  0.96904595  0.09021806  0.18304261    -0.73880
C1058       C  0.48840835  0.05030099  0.28183736     0.77910
C1059       C  0.55578873  0.11435448  0.32685645     0.78400
C1060       C  0.55378073  0.10159467  0.18408321     0.77360
C1061       C  0.00126443  0.18753472  0.25250936     0.77740
C1062       C  0.94476867  0.11797504  0.32666307     0.78870
C1063       C  0.94972128  0.10598824  0.17921779     0.77920
Zn1064     Zn  0.50025362  0.40263984  0.21911404     1.49720
Zn1065     Zn  0.49890419  0.38729109  0.30795596     1.49360
Zn1066     Zn  0.96635537  0.35464366  0.25046685     1.49110
Zn1067     Zn  0.53268650  0.35464055  0.24979208     1.49480
O1068       O  0.49975174  0.37402504  0.25525611    -1.83350
O1069       O  0.50093515  0.43638300  0.24734656    -0.73980
O1070       O  0.97095824  0.37136068  0.34243483    -0.73800
O1071       O  0.94463635  0.36658913  0.20310683    -0.73310
O1072       O  0.48729544  0.42367653  0.30574231    -0.73990
O1073       O  0.96619750  0.40426178  0.18991532    -0.73590
O1074       O  0.94175881  0.36611065  0.29540658    -0.74180
O1075       O  0.52148796  0.31567194  0.25021996    -0.73570
O1076       O  0.53505951  0.39159044  0.33038074    -0.74320
O1077       O  0.97694391  0.31559283  0.25049948    -0.73710
O1078       O  0.55976577  0.36649192  0.29138192    -0.74180
O1079       O  0.55292005  0.36503843  0.20039157    -0.74090
O1080       O  0.53188098  0.40198917  0.18400085    -0.73880
C1081       C  0.49172873  0.44141135  0.28089793     0.77910
C1082       C  0.94720710  0.37276801  0.33026018     0.78400
C1083       C  0.94608360  0.38908373  0.18610090     0.77360
C1084       C  0.49912247  0.30325020  0.25013315     0.77740
C1085       C  0.55755128  0.38318801  0.31929557     0.78870
C1086       C  0.55104689  0.38596306  0.17985572     0.77920
Zn1087     Zn  0.64246823  0.49286304  0.04413049     1.49720
Zn1088     Zn  0.59774411  0.01906301  0.49642900     1.49360
Zn1089     Zn  0.64458531  0.49824734  0.44565270     1.49110
Zn1090     Zn  0.60989493  0.45788652  0.48616956     1.49480
O1091       O  0.62467310  0.49301081  0.49388784    -1.83350
O1092       O  0.63270164  0.02619816  0.07745055    -0.73980
O1093       O  0.60067666  0.04517741  0.45423398    -0.73800
O1094       O  0.68288109  0.49685887  0.46361501    -0.73310
O1095       O  0.59734635  0.03966618  0.04552534    -0.73990
O1096       O  0.68159355  0.49186638  0.02877255    -0.73590
O1097       O  0.63516838  0.03370512  0.41810468    -0.74180
O1098       O  0.62819593  0.43540716  0.44743998    -0.73570
O1099       O  0.56357374  0.00187049  0.48777101    -0.74320
O1100       O  0.63426524  0.46814536  0.40631008    -0.73710
O1101       O  0.57347647  0.46111150  0.46697671    -0.74180
O1102       O  0.60669661  0.43775840  0.03427727    -0.74090
O1103       O  0.62999585  0.46044928  0.07744532    -0.73880
C1104       C  0.61273599  0.04157413  0.07448041     0.77910
C1105       C  0.61558227  0.04905534  0.42500850     0.78400
C1106       C  0.69434136  0.49391686  0.49649746     0.77360
C1107       C  0.62877639  0.44368139  0.41282372     0.77740
C1108       C  0.55714249  0.47977947  0.47233480     0.78870
C1109       C  0.61498344  0.44067694  0.06869321     0.77920
Zn1110     Zn  0.85857189  0.49569325  0.44745232     1.49720
Zn1111     Zn  0.90576994  0.01864646  0.99403099     1.49360
Zn1112     Zn  0.86024023  0.49608340  0.04573998     1.49110
Zn1113     Zn  0.89327171  0.45659749  0.99277777     1.49480
O1114       O  0.87855367  0.49228290  0.99565359    -1.83350
O1115       O  0.86764605  0.03040423  0.41733513    -0.73980
O1116       O  0.90773178  0.04067756  0.04074908    -0.73800
O1117       O  0.82110635  0.49547643  0.03096404    -0.73310
O1118       O  0.90253403  0.04392354  0.45079241    -0.73990
O1119       O  0.82014240  0.49510951  0.46541628    -0.73590
O1120       O  0.87141263  0.03138269  0.07446991    -0.74180
O1121       O  0.89271803  0.43832344  0.04310291    -0.73570
O1122       O  0.93958463  0.00183364  0.98654728    -0.74320
O1123       O  0.87013178  0.46486563  0.08259228    -0.73710
O1124       O  0.93119835  0.45878755  0.97814391    -0.74180
O1125       O  0.87708762  0.43306943  0.45256877    -0.74090
O1126       O  0.87003834  0.46504859  0.41042950    -0.73880
C1127       C  0.88693716  0.04667297  0.42242770     0.77910
C1128       C  0.89232945  0.04556960  0.06897187     0.78400
C1129       C  0.80851507  0.49533750  0.99867232     0.77360
C1130       C  0.88355229  0.44368772  0.07656324     0.77740
C1131       C  0.94707747  0.47844809  0.97872175     0.78870
C1132       C  0.87747558  0.44142072  0.41794610     0.77920
C1133       C  0.73737165  0.01451142  0.47967617    -0.11490
C1134       C  0.72354188  0.49340431  0.49713815     0.05520
C1135       C  0.73774909  0.47308301  0.01593516    -0.06780
C1136       C  0.76556964  0.47485179  0.01733352    -0.07520
C1137       C  0.77934934  0.49590521  0.99962734    -0.02070
C1138       C  0.76513010  0.01628096  0.48107413     0.04750
N1139       N  0.77833867  0.03927622  0.96492953     0.67250
H1140       H  0.72630828  0.03025147  0.46600976     0.16150
H1141       H  0.77669188  0.45910187  0.03086614     0.15860
N1142       N  0.72454553  0.45002960  0.53186960     0.74960
O1143       O  0.76749479  0.05233231  0.43824353    -0.38490
O1144       O  0.79919378  0.04850479  0.98026323    -0.38440
O1145       O  0.70401361  0.44053532  0.51595091    -0.39140
O1146       O  0.73520176  0.43712620  0.05887756    -0.39210
C1147       C  0.51686807  0.45291470  0.47587223    -0.11490
C1148       C  0.52967235  0.47581368  0.46201604     0.05520
C1149       C  0.51505249  0.99716420  0.94703785    -0.06780
C1150       C  0.98766334  0.99620374  0.95052945    -0.07520
C1151       C  0.97494123  0.47497217  0.46939782    -0.02070
C1152       C  0.98940884  0.45249345  0.48081355     0.04750
N1153       N  0.97727401  0.43066865  0.50119905     0.67250
H1154       H  0.52843085  0.43676452  0.48752675     0.16150
H1155       H  0.97617987  0.01277263  0.94000729     0.15860
N1156       N  0.52767706  0.02043951  0.93059769     0.74960
O1157       O  0.98474196  0.40721657  0.49422411    -0.38490
O1158       O  0.96292271  0.43503815  0.03073552    -0.38440
O1159       O  0.54999024  0.01883471  0.41393341    -0.39140
O1160       O  0.51587135  0.04248445  0.93073289    -0.39210
C1161       C  0.59257214  0.41010735  0.16491295    -0.11490
C1162       C  0.57207351  0.39323233  0.15188983     0.05520
C1163       C  0.56909977  0.38848454  0.11179457    -0.06780
C1164       C  0.58543975  0.40248139  0.08567828    -0.07520
C1165       C  0.60439653  0.42152358  0.09831052    -0.02070
C1166       C  0.60908104  0.42400656  0.13869928     0.04750
N1167       N  0.62988960  0.44077241  0.15366945     0.67250
H1168       H  0.59500243  0.41335505  0.19585718     0.16150
H1169       H  0.58220335  0.39939479  0.05490045     0.15860
N1170       N  0.54881957  0.37074360  0.09707247     0.74960
O1171       O  0.62639598  0.45368784  0.18483968    -0.38490
O1172       O  0.65302163  0.43909985  0.13970641    -0.38440
O1173       O  0.54052274  0.35143629  0.11714588    -0.39140
O1174       O  0.54043232  0.37314898  0.06278037    -0.39210
C1175       C  0.59582569  0.38376726  0.36507539    -0.11490
C1176       C  0.58133054  0.39633163  0.33604009     0.05520
C1177       C  0.58726209  0.42321564  0.32682705    -0.06780
C1178       C  0.60557249  0.43750490  0.34981390    -0.07520
C1179       C  0.61826961  0.42574957  0.38149960    -0.02070
C1180       C  0.61465330  0.39796985  0.38743343     0.04750
N1181       N  0.62937113  0.38411219  0.41658617     0.67250
H1182       H  0.59174765  0.36303380  0.37127620     0.16150
H1183       H  0.60853376  0.45853338  0.34453415     0.15860
N1184       N  0.57407187  0.43662215  0.29546037     0.74960
O1185       O  0.61954318  0.36385705  0.43290728    -0.38490
O1186       O  0.65333206  0.39015956  0.42282239    -0.38440
O1187       O  0.57309985  0.46169724  0.29487036    -0.39140
O1188       O  0.56571846  0.42376783  0.26630275    -0.39210
C1189       C  0.91639807  0.38674779  0.12859226    -0.11490
C1190       C  0.92357535  0.39937598  0.16333872     0.05520
C1191       C  0.91174456  0.42405580  0.17336621    -0.06780
C1192       C  0.89614746  0.43713037  0.14565870    -0.07520
C1193       C  0.89143267  0.42588363  0.10895291    -0.02070
C1194       C  0.89992258  0.39941377  0.10160402     0.04750
N1195       N  0.89252618  0.38548382  0.06657412     0.67250
H1196       H  0.92459330  0.36742134  0.12174469     0.16150
H1197       H  0.88898558  0.45695796  0.15187217     0.15860
N1198       N  0.91578295  0.43632864  0.21097884     0.74960
O1199       O  0.90740245  0.36778995  0.05240072    -0.38490
O1200       O  0.86979828  0.38865258  0.05219998    -0.38440
O1201       O  0.92183122  0.42247838  0.24003123    -0.39140
O1202       O  0.90997051  0.46044445  0.21644990    -0.39210
C1203       C  0.93596956  0.41410186  0.36399644    -0.11370
C1204       C  0.92763178  0.38845799  0.35330044     0.05520
C1205       C  0.90071323  0.38118901  0.35965674    -0.06780
C1206       C  0.88371804  0.39944457  0.37895755    -0.07520
C1207       C  0.89228314  0.42537630  0.38876697    -0.02070
C1208       C  0.91856655  0.43307439  0.37920383     0.04750
N1209       N  0.92828798  0.45982497  0.38531993     0.67250
H1210       H  0.95632711  0.41997728  0.35878698     0.16150
H1211       H  0.86383392  0.39323825  0.38717236     0.15860
N1212       N  0.89059723  0.35538917  0.34847690     0.74960
O1213       O  0.95275262  0.46392660  0.39033084    -0.38490
O1214       O  0.91393424  0.47940859  0.37719851    -0.38440
O1215       O  0.90585901  0.33573863  0.34511197    -0.39140
O1216       O  0.86598799  0.35177455  0.34401404    -0.39210
C1217       C  0.59156896  0.08431971  0.09244332    -0.11490
C1218       C  0.60563435  0.06178792  0.10474511     0.05520
C1219       C  0.60704458  0.05667344  0.14503458    -0.06780
C1220       C  0.59146495  0.07181564  0.17093714    -0.07520
C1221       C  0.57537734  0.09260579  0.15792885    -0.02070
C1222       C  0.57649508  0.09990926  0.11840313     0.04750
N1223       N  0.56119773  0.12171225  0.10367783     0.67250
H1224       H  0.59109534  0.08887584  0.06172650     0.16150
H1225       H  0.59087003  0.06648566  0.20140317     0.15860
N1226       N  0.62256593  0.03526095  0.15991040     0.74960
O1227       O  0.55547459  0.12275586  0.06804887    -0.38490
O1228       O  0.55538611  0.14120887  0.12527870    -0.38440
O1229       O  0.64682919  0.03370471  0.15107881    -0.39140
O1230       O  0.61358766  0.02112314  0.18724439    -0.39210
C1231       C  0.59290332  0.09198255  0.41472271    -0.11490
C1232       C  0.60786660  0.07106880  0.39852281     0.05520
C1233       C  0.61048019  0.06961482  0.35756086    -0.06780
C1234       C  0.59622888  0.08743375  0.33427534    -0.07520
C1235       C  0.57848397  0.10579584  0.35079741    -0.02070
C1236       C  0.57791619  0.10910341  0.39155171     0.04750
N1237       N  0.56116557  0.12870802  0.40978790     0.67250
H1238       H  0.59147978  0.09389469  0.44604258     0.16150
H1239       H  0.59641982  0.08455184  0.30302557     0.15860
N1240       N  0.62474805  0.04851492  0.33884235     0.74960
O1241       O  0.55404445  0.12620375  0.44482005    -0.38490
O1242       O  0.55486142  0.14952200  0.39185907    -0.38440
O1243       O  0.61808294  0.02463787  0.34488583    -0.39140
O1244       O  0.63991609  0.05373189  0.31055233    -0.39210
C1245       C  0.89317722  0.06668250  0.13521703    -0.11490
C1246       C  0.90057238  0.06749628  0.09591617     0.05520
C1247       C  0.91971741  0.08675368  0.08398131    -0.06780
C1248       C  0.93413482  0.10100366  0.11205262    -0.07520
C1249       C  0.92868799  0.09810728  0.15161460    -0.02070
C1250       C  0.90660966  0.08220454  0.16343667     0.04750
N1251       N  0.89833932  0.08051620  0.20365528     0.67250
H1252       H  0.87795467  0.05267314  0.14421725     0.16150
H1253       H  0.95045061  0.11375957  0.10304700     0.15860
N1254       N  0.92521798  0.09154432  0.04356184     0.74960
O1255       O  0.88026356  0.06438062  0.21365690    -0.38490
O1256       O  0.90681196  0.09691399  0.22864685    -0.38440
O1257       O  0.90637553  0.09307717  0.01971462    -0.39140
O1258       O  0.94843790  0.09736298  0.03240526    -0.39210
C1259       C  0.90380055  0.09242993  0.41133781    -0.11490
C1260       C  0.89315015  0.06885589  0.39518809     0.05520
C1261       C  0.89518967  0.06491130  0.35456115    -0.06780
C1262       C  0.90995293  0.08319646  0.33214927    -0.07520
C1263       C  0.92282418  0.10531933  0.34912346    -0.02070
C1264       C  0.91863592  0.11068936  0.38900176     0.04750
N1265       N  0.92993951  0.13395728  0.40740497     0.67250
H1266       H  0.90182357  0.09582121  0.44230358     0.16150
H1267       H  0.91321688  0.07884253  0.30164076     0.15860
N1268       N  0.88483154  0.04132886  0.33617724     0.74960
O1269       O  0.93327443  0.13464366  0.44373631    -0.38490
O1270       O  0.93438382  0.15478570  0.38806451    -0.38440
O1271       O  0.86080514  0.03485138  0.34090311    -0.39140
O1272       O  0.89834839  0.02940811  0.31056295    -0.39210
C1273       C  0.52265849  0.26047481  0.26032997    -0.11490
C1274       C  0.49920666  0.27359790  0.25008773     0.05520
C1275       C  0.97639711  0.25805883  0.24142629    -0.06780
C1276       C  0.97758414  0.23027311  0.24365808    -0.07520
C1277       C  0.00107717  0.21715434  0.25360559    -0.02070
C1278       C  0.52382020  0.23266089  0.26267027     0.04750
N1279       N  0.54791148  0.22079454  0.27585380     0.67250
H1280       H  0.54018129  0.27195528  0.26789964     0.16150
H1281       H  0.96004376  0.21881433  0.23608746     0.15860
N1282       N  0.95215207  0.26984356  0.22876945     0.74960
O1283       O  0.56999019  0.22913453  0.26320301    -0.38490
O1284       O  0.54742535  0.20549141  0.30478333    -0.38440
O1285       O  0.95206564  0.28394707  0.19856719    -0.39140
O1286       O  0.93032870  0.26223959  0.24322633    -0.39210
C1287       C  0.49527526  0.01039953  0.31990097    -0.11490
C1288       C  0.48155091  0.02304240  0.29011787     0.05520
C1289       C  0.96641833  0.00831118  0.26306777    -0.06780
C1290       C  0.96844835  0.48088810  0.26322430    -0.07520
C1291       C  0.48478451  0.46837746  0.28991172    -0.02070
C1292       C  0.49721596  0.48278721  0.32004759     0.04750
N1293       N  0.51446618  0.47026212  0.34741537     0.67250
H1294       H  0.50665486  0.02205465  0.34064509     0.16150
H1295       H  0.95872160  0.46926362  0.24077301     0.15860
N1296       N  0.95070821  0.02098467  0.23375703     0.74960
O1297       O  0.53627053  0.48112175  0.35628392    -0.38490
O1298       O  0.50690616  0.44991172  0.36577818    -0.38440
O1299       O  0.94710459  0.00987864  0.20116525    -0.39140
O1300       O  0.93905599  0.04256192  0.24112865    -0.39210
Zn1301     Zn  0.50011751  0.08873931  0.71877410     1.49720
Zn1302     Zn  0.49819476  0.10510168  0.81015133     1.49360
Zn1303     Zn  0.53402144  0.13607137  0.75032708     1.49110
Zn1304     Zn  0.96790334  0.13634668  0.74963040     1.49480
O1305       O  0.50057197  0.11693008  0.75609275    -1.83350
O1306       O  0.49377690  0.05607968  0.74687036    -0.73980
O1307       O  0.53275645  0.10714352  0.83789140    -0.73800
O1308       O  0.55526670  0.12384204  0.70214913    -0.73310
O1309       O  0.48934237  0.06711361  0.80930315    -0.73990
O1310       O  0.53423392  0.08580446  0.68899816    -0.73590
O1311       O  0.55947602  0.12624917  0.79459380    -0.74180
O1312       O  0.97892767  0.17511474  0.75311528    -0.73570
O1313       O  0.96773269  0.11939143  0.84161077    -0.74320
O1314       O  0.52343337  0.17522906  0.75024800    -0.73710
O1315       O  0.94149645  0.12365946  0.79103801    -0.74180
O1316       O  0.94781550  0.12706209  0.69978519    -0.74090
O1317       O  0.96904885  0.09021318  0.68303851    -0.73880
C1318       C  0.48841177  0.05030196  0.78183809     0.77910
C1319       C  0.55579095  0.11435611  0.82684746     0.78400
C1320       C  0.55378104  0.10159369  0.68407452     0.77360
C1321       C  0.00126499  0.18753450  0.75250135     0.77740
C1322       C  0.94476944  0.11797660  0.82665345     0.78870
C1323       C  0.94972454  0.10598323  0.67920963     0.77920
Zn1324     Zn  0.50025240  0.40264116  0.71912108     1.49720
Zn1325     Zn  0.49890374  0.38729132  0.80796208     1.49360
Zn1326     Zn  0.96635482  0.35464406  0.75047318     1.49110
Zn1327     Zn  0.53268561  0.35464120  0.74979560     1.49480
O1328       O  0.49975105  0.37402569  0.75526175    -1.83350
O1329       O  0.50093394  0.43638398  0.74735554    -0.73980
O1330       O  0.97095818  0.37135941  0.84244000    -0.73800
O1331       O  0.94463705  0.36658761  0.70311133    -0.73310
O1332       O  0.48729456  0.42367718  0.80575134    -0.73990
O1333       O  0.96619650  0.40426156  0.68992147    -0.73590
O1334       O  0.94175807  0.36611306  0.79541211    -0.74180
O1335       O  0.52148733  0.31567230  0.75022359    -0.73570
O1336       O  0.53505952  0.39158974  0.83038607    -0.74320
O1337       O  0.97694328  0.31559307  0.75050639    -0.73710
O1338       O  0.55976560  0.36649315  0.79138415    -0.74180
O1339       O  0.55291750  0.36503901  0.70039351    -0.74090
O1340       O  0.53187925  0.40199100  0.68400653    -0.73880
C1341       C  0.49172851  0.44141231  0.78090761     0.77910
C1342       C  0.94720712  0.37276962  0.83026582     0.78400
C1343       C  0.94608375  0.38908213  0.68610518     0.77360
C1344       C  0.49912188  0.30325044  0.75013799     0.77740
C1345       C  0.55755128  0.38318821  0.81929919     0.78870
C1346       C  0.55104432  0.38596417  0.67985878     0.77920
Zn1347     Zn  0.64246668  0.49285829  0.54412594     1.49720
Zn1348     Zn  0.59774967  0.01907516  0.99643353     1.49360
Zn1349     Zn  0.64458478  0.49825098  0.94565425     1.49110
Zn1350     Zn  0.60989144  0.45789571  0.98617583     1.49480
O1351       O  0.62467415  0.49301805  0.99389206    -1.83350
O1352       O  0.63269924  0.02619509  0.57744102    -0.73980
O1353       O  0.60068209  0.04518754  0.95423570    -0.73800
O1354       O  0.68288043  0.49686272  0.96361601    -0.73310
O1355       O  0.59733785  0.03965385  0.54552133    -0.73990
O1356       O  0.68159297  0.49186098  0.52877098    -0.73590
O1357       O  0.63516857  0.03370731  0.91810134    -0.74180
O1358       O  0.62818674  0.43541200  0.94744628    -0.73570
O1359       O  0.56357732  0.00188675  0.98778142    -0.74320
O1360       O  0.63426414  0.46814736  0.90631391    -0.73710
O1361       O  0.57347311  0.46112578  0.96698786    -0.74180
O1362       O  0.60670000  0.43774936  0.53427188    -0.74090
O1363       O  0.62999201  0.46044632  0.57744205    -0.73880
C1364       C  0.61273032  0.04156698  0.57447267     0.77910
C1365       C  0.61558517  0.04906078  0.92500618     0.78400
C1366       C  0.69434115  0.49392158  0.99649831     0.77360
C1367       C  0.62877193  0.44368435  0.91282927     0.77740
C1368       C  0.55714212  0.47979607  0.97234783     0.78870
C1369       C  0.61498264  0.44067171  0.56868952     0.77920
Zn1370     Zn  0.85857150  0.49570082  0.94745503     1.49720
Zn1371     Zn  0.90577629  0.01863187  0.49402478     1.49360
Zn1372     Zn  0.86024353  0.49607426  0.54573322     1.49110
Zn1373     Zn  0.89327124  0.45658473  0.49276898     1.49480
O1374       O  0.87855647  0.49227187  0.49564761    -1.83350
O1375       O  0.86764521  0.03041075  0.91733396    -0.73980
O1376       O  0.90774304  0.04066081  0.54074623    -0.73800
O1377       O  0.82110850  0.49546875  0.53096143    -0.73310
O1378       O  0.90253001  0.04393456  0.95079425    -0.73990
O1379       O  0.82014190  0.49511631  0.96541839    -0.73590
O1380       O  0.87141880  0.03137333  0.57446039    -0.74180
O1381       O  0.89271879  0.43831176  0.54309615    -0.73570
O1382       O  0.93958901  0.00181511  0.48652988    -0.74320
O1383       O  0.87013507  0.46485700  0.58258476    -0.73710
O1384       O  0.93119774  0.45876988  0.47812636    -0.74180
O1385       O  0.87709552  0.43307907  0.95257580    -0.74090
O1386       O  0.87004052  0.46505528  0.91043375    -0.73880
C1387       C  0.88693516  0.04668090  0.92242656     0.77910
C1388       C  0.89233856  0.04555644  0.56896549     0.78400
C1389       C  0.80851622  0.49533061  0.49867059     0.77360
C1390       C  0.88355434  0.44367819  0.57655673     0.77740
C1391       C  0.94707898  0.47842886  0.47870085     0.78870
C1392       C  0.87748117  0.44142876  0.91795241     0.77920
C1393       C  0.73737066  0.01451699  0.97967695    -0.11490
C1394       C  0.72354140  0.49340926  0.99713811     0.05520
C1395       C  0.73774938  0.47307811  0.51593579    -0.06780
C1396       C  0.76557007  0.47484641  0.51733402    -0.07520
C1397       C  0.77935027  0.49589919  0.49962688    -0.02070
C1398       C  0.76512898  0.01628712  0.98107528     0.04750
N1399       N  0.77834019  0.03926936  0.46492696     0.67250
H1400       H  0.72630695  0.03025708  0.96601121     0.16150
H1401       H  0.77669203  0.45909642  0.53086697     0.15860
N1402       N  0.72454553  0.45003420  0.03186861     0.74960
O1403       O  0.76749300  0.05233978  0.93824698    -0.38490
O1404       O  0.79919552  0.04849794  0.48026001    -0.38440
O1405       O  0.70401348  0.44054002  0.01595019    -0.39140
O1406       O  0.73520153  0.43712174  0.55887888    -0.39210
C1407       C  0.51686645  0.45293467  0.97589428    -0.11490
C1408       C  0.52967078  0.47583294  0.96203582     0.05520
C1409       C  0.51505388  0.99714347  0.44701371    -0.06780
C1410       C  0.98766435  0.99618185  0.45050237    -0.07520
C1411       C  0.97494043  0.47499375  0.96942451    -0.02070
C1412       C  0.98940770  0.45251469  0.98083945     0.04750
N1413       N  0.97727301  0.43069056  0.00122683     0.67250
H1414       H  0.52842925  0.43678381  0.98754680     0.16150
H1415       H  0.97618060  0.01275014  0.43997891     0.15860
N1416       N  0.52767840  0.02041884  0.43057314     0.74960
O1417       O  0.98474134  0.40723826  0.99425445    -0.38490
O1418       O  0.96292470  0.43501516  0.53070909    -0.38440
O1419       O  0.54998474  0.01885350  0.91394631    -0.39140
O1420       O  0.51586867  0.04246154  0.43069508    -0.39210
C1421       C  0.59256986  0.41010690  0.66491200    -0.11490
C1422       C  0.57206989  0.39323286  0.65189078     0.05520
C1423       C  0.56909460  0.38848473  0.61179579    -0.06780
C1424       C  0.58543498  0.40247985  0.58567798    -0.07520
C1425       C  0.60439382  0.42152053  0.59830838    -0.02070
C1426       C  0.60907912  0.42400435  0.63869685     0.04750
N1427       N  0.62988922  0.44076904  0.65366523     0.67250
H1428       H  0.59500125  0.41335497  0.69585595     0.16150
H1429       H  0.58219742  0.39939305  0.55490047     0.15860
N1430       N  0.54881267  0.37074509  0.59707542     0.74960
O1431       O  0.62639733  0.45368528  0.68483517    -0.38490
O1432       O  0.65302064  0.43909519  0.63970034    -0.38440
O1433       O  0.54051493  0.35143868  0.61714986    -0.39140
O1434       O  0.54042475  0.37315058  0.56278369    -0.39210
C1435       C  0.59582392  0.38376851  0.86508205    -0.11490
C1436       C  0.58133058  0.39633176  0.83604376     0.05520
C1437       C  0.58726280  0.42321535  0.82682922    -0.06780
C1438       C  0.60557230  0.43750538  0.84981663    -0.07520
C1439       C  0.61826743  0.42575130  0.88150504    -0.02070
C1440       C  0.61465033  0.39797189  0.88744121     0.04750
N1441       N  0.62936576  0.38411547  0.91659789     0.67250
H1442       H  0.59174508  0.36303545  0.87128455     0.16150
H1443       H  0.60853393  0.45853364  0.84453545     0.15860
N1444       N  0.57407338  0.43662097  0.79546111     0.74960
O1445       O  0.61953654  0.36386093  0.93291902    -0.38490
O1446       O  0.65332598  0.39016352  0.92283856    -0.38440
O1447       O  0.57309870  0.46169595  0.79487191    -0.39140
O1448       O  0.56572248  0.42376610  0.76630246    -0.39210
C1449       C  0.91639998  0.38674182  0.62859476    -0.11490
C1450       C  0.92357617  0.39937243  0.66333992     0.05520
C1451       C  0.91174486  0.42405262  0.67336331    -0.06780
C1452       C  0.89614841  0.43712514  0.64565318    -0.07520
C1453       C  0.89143482  0.42587605  0.60894854    -0.02070
C1454       C  0.89992508  0.39940584  0.60160370     0.04750
N1455       N  0.89252928  0.38547340  0.56657561     0.67250
H1456       H  0.92459553  0.36741498  0.62175048     0.16150
H1457       H  0.88898600  0.45695293  0.65186384     0.15860
N1458       N  0.91578218  0.43632788  0.71097447     0.74960
O1459       O  0.90740556  0.36777816  0.55240593    -0.38490
O1460       O  0.86980156  0.38864100  0.55220029    -0.38440
O1461       O  0.92182759  0.42247918  0.74002978    -0.39140
O1462       O  0.90997157  0.46044460  0.71644099    -0.39210
C1463       C  0.93597702  0.41410131  0.86401440    -0.11370
C1464       C  0.92763334  0.38846125  0.85330719     0.05520
C1465       C  0.90071219  0.38119861  0.85965358    -0.06780
C1466       C  0.88371870  0.39945612  0.87895411    -0.07520
C1467       C  0.89228949  0.42538420  0.88877423    -0.02070
C1468       C  0.91857661  0.43307634  0.87922312     0.04750
N1469       N  0.92830518  0.45982319  0.88535253     0.67250
H1470       H  0.95633481  0.41997100  0.85881376     0.16150
H1471       H  0.86383265  0.39325429  0.88716019     0.15860
N1472       N  0.89059122  0.35540256  0.84846461     0.74960
O1473       O  0.95277113  0.46391772  0.89036051    -0.38490
O1474       O  0.91395457  0.47941312  0.87725061    -0.38440
O1475       O  0.90584822  0.33574788  0.84510396    -0.39140
O1476       O  0.86598198  0.35179494  0.84399163    -0.39210
C1477       C  0.59156077  0.08431213  0.59243067    -0.11490
C1478       C  0.60562915  0.06178280  0.60473453     0.05520
C1479       C  0.60704435  0.05667294  0.64502484    -0.06780
C1480       C  0.59146689  0.07181717  0.67092763    -0.07520
C1481       C  0.57537645  0.09260477  0.65791826    -0.02070
C1482       C  0.57648898  0.09990368  0.61839046     0.04750
N1483       N  0.56118847  0.12170398  0.60366379     0.67250
H1484       H  0.59108337  0.08886476  0.56171288     0.16150
H1485       H  0.59087561  0.06649043  0.70139500     0.15860
N1486       N  0.62256830  0.03526278  0.65990189     0.74960
O1487       O  0.55546139  0.12274343  0.56803590    -0.38490
O1488       O  0.55537780  0.14120242  0.62526169    -0.38440
O1489       O  0.64683093  0.03370723  0.65106619    -0.39140
O1490       O  0.61359323  0.02112695  0.68724026    -0.39210
C1491       C  0.59290820  0.09198859  0.91471436    -0.11490
C1492       C  0.60786926  0.07107232  0.89851693     0.05520
C1493       C  0.61048034  0.06961434  0.85755488    -0.06780
C1494       C  0.59622897  0.08743210  0.83426747    -0.07520
C1495       C  0.57848639  0.10579713  0.85078793    -0.02070
C1496       C  0.57792102  0.10910839  0.89154166     0.04750
N1497       N  0.56117292  0.12871598  0.90977592     0.67250
H1498       H  0.59148651  0.09390381  0.94603401     0.16150
H1499       H  0.59641806  0.08454733  0.80301823     0.15860
N1500       N  0.62474564  0.04851172  0.83883879     0.74960
O1501       O  0.55405320  0.12621530  0.94480923    -0.38490
O1502       O  0.55486979  0.14952900  0.89184394    -0.38440
O1503       O  0.61807824  0.02463577  0.84488620    -0.39140
O1504       O  0.63991326  0.05372519  0.81054691    -0.39210
C1505       C  0.89318477  0.06667165  0.63520922    -0.11490
C1506       C  0.90058119  0.06748378  0.59590877     0.05520
C1507       C  0.91972553  0.08674151  0.58397302    -0.06780
C1508       C  0.93414079  0.10099436  0.61204370    -0.07520
C1509       C  0.92869253  0.09810015  0.65160566    -0.02070
C1510       C  0.90661516  0.08219628  0.66342794     0.04750
N1511       N  0.89834398  0.08050953  0.70364626     0.67250
H1512       H  0.87796265  0.05266198  0.64420997     0.16150
H1513       H  0.95045606  0.11375087  0.60303783     0.15860
N1514       N  0.92522671  0.09153041  0.54355330     0.74960
O1515       O  0.88027250  0.06436977  0.71364999    -0.38490
O1516       O  0.90681110  0.09691240  0.72863484    -0.38440
O1517       O  0.90638467  0.09305948  0.51970486    -0.39140
O1518       O  0.94844604  0.09735236  0.53239764    -0.39210
C1519       C  0.90379966  0.09243686  0.91133046    -0.11490
C1520       C  0.89314946  0.06886171  0.89518369     0.05520
C1521       C  0.89519028  0.06491413  0.85455744    -0.06780
C1522       C  0.90995408  0.08319772  0.83214348    -0.07520
C1523       C  0.92282484  0.10532185  0.84911497    -0.02070
C1524       C  0.91863560  0.11069469  0.88899229     0.04750
N1525       N  0.92993858  0.13396401  0.90739249     0.67250
H1526       H  0.90182208  0.09583032  0.94229577     0.16150
H1527       H  0.91321868  0.07884172  0.80163572     0.15860
N1528       N  0.88483300  0.04133021  0.83617662     0.74960
O1529       O  0.93327294  0.13465293  0.94372387    -0.38490
O1530       O  0.93438278  0.15479119  0.88804913    -0.38440
O1531       O  0.86080627  0.03485336  0.84090065    -0.39140
O1532       O  0.89835128  0.02940705  0.81056640    -0.39210
C1533       C  0.52265786  0.26047464  0.76033236    -0.11490
C1534       C  0.49920617  0.27359806  0.75009041     0.05520
C1535       C  0.97639703  0.25805924  0.74142576    -0.06780
C1536       C  0.97758440  0.23027332  0.74365383    -0.07520
C1537       C  0.00107736  0.21715420  0.75360077    -0.02070
C1538       C  0.52381989  0.23266054  0.76266908     0.04750
N1539       N  0.54791090  0.22079374  0.77585276     0.67250
H1540       H  0.54018027  0.27195495  0.76790445     0.16150
H1541       H  0.96004438  0.21881475  0.73608079     0.15860
N1542       N  0.95215217  0.26984445  0.72876913     0.74960
O1543       O  0.56998990  0.22913489  0.76320465    -0.38490
O1544       O  0.54742406  0.20548902  0.80478048    -0.38440
O1545       O  0.95206641  0.28395019  0.69856907    -0.39140
O1546       O  0.93032849  0.26223905  0.74322341    -0.39210
C1547       C  0.49527985  0.01040222  0.81990494    -0.11490
C1548       C  0.48155420  0.02304396  0.79012221     0.05520
C1549       C  0.96641962  0.00831190  0.76307487    -0.06780
C1550       C  0.96844749  0.48088876  0.76323614    -0.07520
C1551       C  0.48478533  0.46837875  0.78992197    -0.02070
C1552       C  0.49721999  0.48278975  0.82005421     0.04750
N1553       N  0.51447194  0.47026589  0.84742134     0.67250
H1554       H  0.50666087  0.02205833  0.84064623     0.16150
H1555       H  0.95871832  0.46926351  0.74078787     0.15860
N1556       N  0.95070934  0.02098447  0.73376348     0.74960
O1557       O  0.53627219  0.48113103  0.85629760    -0.38490
O1558       O  0.50691657  0.44991095  0.86577734    -0.38440
O1559       O  0.94710520  0.00987724  0.70117269    -0.39140
O1560       O  0.93905835  0.04256270  0.74113306    -0.39210
Zn1561     Zn  0.50011495  0.58874150  0.21877805     1.49720
Zn1562     Zn  0.49819304  0.60509878  0.31015776     1.49360
Zn1563     Zn  0.53402016  0.63607132  0.25033684     1.49110
Zn1564     Zn  0.96790202  0.63634780  0.24964109     1.49480
O1565       O  0.50057035  0.61693013  0.25610061    -1.83350
O1566       O  0.49377310  0.55608079  0.24687106    -0.73980
O1567       O  0.53275454  0.60713922  0.33789776    -0.73800
O1568       O  0.55526688  0.62384163  0.20216073    -0.73310
O1569       O  0.48933978  0.56711092  0.30930542    -0.73990
O1570       O  0.53423211  0.58580626  0.18900304    -0.73590
O1571       O  0.55947393  0.62625004  0.29460483    -0.74180
O1572       O  0.97892698  0.67511536  0.25312557    -0.73570
O1573       O  0.96773220  0.61938800  0.34161965    -0.74320
O1574       O  0.52343256  0.67522890  0.25025553    -0.73710
O1575       O  0.94149534  0.62366023  0.29104851    -0.74180
O1576       O  0.94781278  0.62706554  0.19979678    -0.74090
O1577       O  0.96904594  0.59021808  0.18304255    -0.73880
C1578       C  0.48840833  0.55030099  0.28183815     0.77910
C1579       C  0.55578877  0.61435453  0.32685650     0.78400
C1580       C  0.55378062  0.60159440  0.18408334     0.77360
C1581       C  0.00126444  0.68753474  0.25250931     0.77740
C1582       C  0.94476869  0.61797505  0.32666301     0.78870
C1583       C  0.94972127  0.60598827  0.17921775     0.77920
Zn1584     Zn  0.50025370  0.90263959  0.21911379     1.49720
Zn1585     Zn  0.49890414  0.88729117  0.30795572     1.49360
Zn1586     Zn  0.96635534  0.85464367  0.25046689     1.49110
Zn1587     Zn  0.53268655  0.85464042  0.24979222     1.49480
O1588       O  0.49975176  0.87402490  0.25525601    -1.83350
O1589       O  0.50093554  0.93638280  0.24734613    -0.73980
O1590       O  0.97095822  0.87136065  0.34243487    -0.73800
O1591       O  0.94463634  0.86658915  0.20310685    -0.73310
O1592       O  0.48729523  0.92367653  0.30574168    -0.73990
O1593       O  0.96619749  0.90426181  0.18991538    -0.73590
O1594       O  0.94175879  0.86611066  0.29540662    -0.74180
O1595       O  0.52148798  0.81567182  0.25022009    -0.73570
O1596       O  0.53505945  0.89159071  0.33038043    -0.74320
O1597       O  0.97694390  0.81559284  0.25049950    -0.73710
O1598       O  0.55976573  0.86649182  0.29138218    -0.74180
O1599       O  0.55292024  0.86503826  0.20039178    -0.74090
O1600       O  0.53188098  0.90198877  0.18400048    -0.73880
C1601       C  0.49172884  0.94141127  0.28089729     0.77910
C1602       C  0.94720708  0.87276799  0.33026022     0.78400
C1603       C  0.94608359  0.88908376  0.18610094     0.77360
C1604       C  0.49912248  0.80325009  0.25013324     0.77740
C1605       C  0.55755122  0.88318812  0.31929556     0.78870
C1606       C  0.55104699  0.88596275  0.17985565     0.77920
Zn1607     Zn  0.64246821  0.99286302  0.04413064     1.49720
Zn1608     Zn  0.59774416  0.51906303  0.49642887     1.49360
Zn1609     Zn  0.64458526  0.99824737  0.44565282     1.49110
Zn1610     Zn  0.60989492  0.95788650  0.48616967     1.49480
O1611       O  0.62467306  0.99301081  0.49388797    -1.83350
O1612       O  0.63270165  0.52619815  0.07745043    -0.73980
O1613       O  0.60067676  0.54517744  0.45423388    -0.73800
O1614       O  0.68288105  0.99685889  0.46361512    -0.73310
O1615       O  0.59734634  0.53966614  0.04552525    -0.73990
O1616       O  0.68159352  0.99186637  0.02877269    -0.73590
O1617       O  0.63516843  0.53370508  0.41810453    -0.74180
O1618       O  0.62819590  0.93540718  0.44744003    -0.73570
O1619       O  0.56357379  0.50187054  0.48777082    -0.74320
O1620       O  0.63426518  0.96814541  0.40631018    -0.73710
O1621       O  0.57347645  0.96111147  0.46697688    -0.74180
O1622       O  0.60669664  0.93775836  0.03427736    -0.74090
O1623       O  0.62999583  0.96044924  0.07744546    -0.73880
C1624       C  0.61273598  0.54157408  0.07448033     0.77910
C1625       C  0.61558236  0.54905534  0.42500838     0.78400
C1626       C  0.69434132  0.99391685  0.49649756     0.77360
C1627       C  0.62877634  0.94368144  0.41282378     0.77740
C1628       C  0.55714245  0.97977942  0.47233498     0.78870
C1629       C  0.61498346  0.94067688  0.06869331     0.77920
Zn1630     Zn  0.85857186  0.99569324  0.44745241     1.49720
Zn1631     Zn  0.90576992  0.51864650  0.99403105     1.49360
Zn1632     Zn  0.86024025  0.99608339  0.04573996     1.49110
Zn1633     Zn  0.89327168  0.95659745  0.99277771     1.49480
O1634       O  0.87855366  0.99228288  0.99565356    -1.83350
O1635       O  0.86764608  0.53040424  0.41733505    -0.73980
O1636       O  0.90773171  0.54067763  0.04074910    -0.73800
O1637       O  0.82110635  0.99547643  0.03096406    -0.73310
O1638       O  0.90253405  0.54392357  0.45079235    -0.73990
O1639       O  0.82014236  0.99510949  0.46541636    -0.73590
O1640       O  0.87141259  0.53138270  0.07446996    -0.74180
O1641       O  0.89271803  0.93832341  0.04310287    -0.73570
O1642       O  0.93958463  0.50183372  0.98654744    -0.74320
O1643       O  0.87013181  0.96486562  0.08259225    -0.73710
O1644       O  0.93119831  0.95878747  0.97814376    -0.74180
O1645       O  0.87708762  0.93306942  0.45256886    -0.74090
O1646       O  0.87003833  0.96504858  0.41042959    -0.73880
C1647       C  0.88693718  0.54667300  0.42242764     0.77910
C1648       C  0.89232938  0.54556965  0.06897190     0.78400
C1649       C  0.80851506  0.99533750  0.99867236     0.77360
C1650       C  0.88355230  0.94368771  0.07656321     0.77740
C1651       C  0.94707745  0.97844801  0.97872157     0.78870
C1652       C  0.87747558  0.94142071  0.41794619     0.77920
C1653       C  0.73737169  0.51451143  0.47967608    -0.11490
C1654       C  0.72354184  0.99340429  0.49713824     0.05520
C1655       C  0.73774908  0.97308300  0.01593524    -0.06780
C1656       C  0.76556963  0.97485178  0.01733358    -0.07520
C1657       C  0.77934933  0.99590521  0.99962741    -0.02070
C1658       C  0.76513014  0.51628098  0.48107405     0.04750
N1659       N  0.77833870  0.53927619  0.96492938     0.67250
H1660       H  0.72630832  0.53025148  0.46600965     0.16150
H1661       H  0.77669188  0.95910184  0.03086616     0.15860
N1662       N  0.72454548  0.95002957  0.53186966     0.74960
O1663       O  0.76749483  0.55233232  0.43824342    -0.38490
O1664       O  0.79919380  0.54850478  0.98026309    -0.38440
O1665       O  0.70401356  0.94053531  0.51595097    -0.39140
O1666       O  0.73520177  0.93712617  0.05887759    -0.39210
C1667       C  0.51686803  0.95291463  0.47587240    -0.11490
C1668       C  0.52967232  0.97581361  0.46201619     0.05520
C1669       C  0.51505252  0.49716425  0.94703769    -0.06780
C1670       C  0.98766336  0.49620386  0.95052969    -0.07520
C1671       C  0.97494121  0.97497217  0.46939809    -0.02070
C1672       C  0.98940881  0.95249345  0.48081385     0.04750
N1673       N  0.97727397  0.93066867  0.50119937     0.67250
H1674       H  0.52843081  0.93676447  0.48752697     0.16150
H1675       H  0.97617989  0.51277276  0.94000755     0.15860
N1676       N  0.52767708  0.52043957  0.93059758     0.74960
O1677       O  0.98474194  0.90721658  0.49422448    -0.38490
O1678       O  0.96292268  0.93503806  0.03073534    -0.38440
O1679       O  0.54999024  0.51883483  0.41393333    -0.39140
O1680       O  0.51587137  0.54248451  0.93073283    -0.39210
C1681       C  0.59257225  0.91010706  0.16491296    -0.11490
C1682       C  0.57207364  0.89323202  0.15188980     0.05520
C1683       C  0.56909989  0.88848431  0.11179452    -0.06780
C1684       C  0.58543984  0.90248124  0.08567827    -0.07520
C1685       C  0.60439658  0.92152346  0.09831057    -0.02070
C1686       C  0.60908110  0.92400636  0.13869933     0.04750
N1687       N  0.62988961  0.94077226  0.15366955     0.67250
H1688       H  0.59500253  0.91335472  0.19585720     0.16150
H1689       H  0.58220343  0.89939469  0.05490043     0.15860
N1690       N  0.54881973  0.87074335  0.09707237     0.74960
O1691       O  0.62639595  0.95368763  0.18483982    -0.38490
O1692       O  0.65302165  0.93909978  0.13970651    -0.38440
O1693       O  0.54052291  0.85143602  0.11714575    -0.39140
O1694       O  0.54043249  0.87314874  0.06278027    -0.39210
C1695       C  0.59582565  0.88376734  0.36507536    -0.11490
C1696       C  0.58133048  0.89633174  0.33604010     0.05520
C1697       C  0.58726202  0.92321575  0.32682711    -0.06780
C1698       C  0.60557241  0.93750500  0.34981398    -0.07520
C1699       C  0.61826955  0.92574964  0.38149964    -0.02070
C1700       C  0.61465325  0.89796991  0.38743343     0.04750
N1701       N  0.62937108  0.88411223  0.41658613     0.67250
H1702       H  0.59174761  0.86303387  0.37127613     0.16150
H1703       H  0.60853368  0.95853348  0.34453426     0.15860
N1704       N  0.57407180  0.93662227  0.29546043     0.74960
O1705       O  0.61954313  0.86385708  0.43290723    -0.38490
O1706       O  0.65333202  0.89015959  0.42282235    -0.38440
O1707       O  0.57309973  0.96169736  0.29487049    -0.39140
O1708       O  0.56571847  0.92376796  0.26630276    -0.39210
C1709       C  0.91639808  0.88674780  0.12859228    -0.11490
C1710       C  0.92357535  0.89937599  0.16333874     0.05520
C1711       C  0.91174456  0.92405582  0.17336620    -0.06780
C1712       C  0.89614747  0.93713038  0.14565868    -0.07520
C1713       C  0.89143269  0.92588363  0.10895289    -0.02070
C1714       C  0.89992259  0.89941377  0.10160402     0.04750
N1715       N  0.89252619  0.88548380  0.06657414     0.67250
H1716       H  0.92459331  0.86742134  0.12174473     0.16150
H1717       H  0.88898559  0.95695797  0.15187213     0.15860
N1718       N  0.91578294  0.93632867  0.21097883     0.74960
O1719       O  0.90740247  0.86778993  0.05240076    -0.38490
O1720       O  0.86979829  0.88865256  0.05220000    -0.38440
O1721       O  0.92183120  0.92247842  0.24003124    -0.39140
O1722       O  0.90997049  0.96044447  0.21644988    -0.39210
C1723       C  0.93596957  0.91410182  0.36399659    -0.11370
C1724       C  0.92763176  0.88845798  0.35330050     0.05520
C1725       C  0.90071321  0.88118902  0.35965675    -0.06780
C1726       C  0.88371801  0.89944459  0.37895757    -0.07520
C1727       C  0.89228315  0.92537630  0.38876706    -0.02070
C1728       C  0.91856657  0.93307436  0.37920399     0.04750
N1729       N  0.92828804  0.95982492  0.38532018     0.67250
H1730       H  0.95632713  0.91997721  0.35878719     0.16150
H1731       H  0.86383389  0.89323828  0.38717233     0.15860
N1732       N  0.89059718  0.85538921  0.34847684     0.74960
O1733       O  0.95275268  0.96392651  0.39033110    -0.38490
O1734       O  0.91393431  0.97940857  0.37719883    -0.38440
O1735       O  0.90585894  0.83573865  0.34511192    -0.39140
O1736       O  0.86598794  0.85177462  0.34401393    -0.39210
C1737       C  0.59156885  0.58431958  0.09244336    -0.11490
C1738       C  0.60563428  0.56178780  0.10474509     0.05520
C1739       C  0.60704450  0.55667325  0.14503454    -0.06780
C1740       C  0.59146482  0.57181537  0.17093715    -0.07520
C1741       C  0.57537719  0.59260552  0.15792892    -0.02070
C1742       C  0.57649493  0.59990906  0.11840322     0.04750
N1743       N  0.56119753  0.62171203  0.10367798     0.67250
H1744       H  0.59109523  0.58887576  0.06172656     0.16150
H1745       H  0.59086991  0.56648535  0.20140315     0.15860
N1746       N  0.62256589  0.53526077  0.15991030     0.74960
O1747       O  0.55547431  0.62275561  0.06804904    -0.38490
O1748       O  0.55538596  0.64120867  0.12527884    -0.38440
O1749       O  0.64682916  0.53370460  0.15107872    -0.39140
O1750       O  0.61358763  0.52112289  0.18724423    -0.39210
C1751       C  0.59290351  0.59198261  0.41472262    -0.11490
C1752       C  0.60786670  0.57106880  0.39852269     0.05520
C1753       C  0.61048019  0.56961478  0.35756074    -0.06780
C1754       C  0.59622887  0.58743372  0.33427524    -0.07520
C1755       C  0.57848403  0.60579586  0.35079737    -0.02070
C1756       C  0.57791637  0.60910348  0.39155166     0.04750
N1757       N  0.56116585  0.62870815  0.40978790     0.67250
H1758       H  0.59148005  0.59389479  0.44604249     0.16150
H1759       H  0.59641972  0.58455177  0.30302549     0.15860
N1760       N  0.62474794  0.54851481  0.33884219     0.74960
O1761       O  0.55404481  0.62620395  0.44482009    -0.38490
O1762       O  0.55486172  0.64952214  0.39185905    -0.38440
O1763       O  0.61808279  0.52463779  0.34488579    -0.39140
O1764       O  0.63991591  0.55373170  0.31055206    -0.39210
C1765       C  0.89317719  0.56668252  0.13521707    -0.11490
C1766       C  0.90057231  0.56749632  0.09591620     0.05520
C1767       C  0.91971731  0.58675375  0.08398132    -0.06780
C1768       C  0.93413474  0.60100371  0.11205260    -0.07520
C1769       C  0.92868796  0.59810731  0.15161460    -0.02070
C1770       C  0.90660965  0.58220456  0.16343669     0.04750
N1771       N  0.89833935  0.58051619  0.20365532     0.67250
H1772       H  0.87795466  0.55267315  0.14421731     0.16150
H1773       H  0.95045052  0.61375964  0.10304697     0.15860
N1774       N  0.92521783  0.59154441  0.04356184     0.74960
O1775       O  0.88026363  0.56438059  0.21365697    -0.38490
O1776       O  0.90681198  0.59691400  0.22864688    -0.38440
O1777       O  0.90637536  0.59307725  0.01971466    -0.39140
O1778       O  0.94843774  0.59736311  0.03240521    -0.39210
C1779       C  0.90380055  0.59242996  0.41133774    -0.11490
C1780       C  0.89315017  0.56885591  0.39518802     0.05520
C1781       C  0.89518970  0.56491131  0.35456109    -0.06780
C1782       C  0.90995296  0.58319647  0.33214921    -0.07520
C1783       C  0.92282420  0.60531934  0.34912339    -0.02070
C1784       C  0.91863592  0.61068939  0.38900169     0.04750
N1785       N  0.92993949  0.63395732  0.40740489     0.67250
H1786       H  0.90182355  0.59582125  0.44230351     0.16150
H1787       H  0.91321693  0.57884253  0.30164071     0.15860
N1788       N  0.88483158  0.54132887  0.33617718     0.74960
O1789       O  0.93327438  0.63464373  0.44373624    -0.38490
O1790       O  0.93438382  0.65478573  0.38806441    -0.38440
O1791       O  0.86080518  0.53485137  0.34090302    -0.39140
O1792       O  0.89834846  0.52940811  0.31056293    -0.39210
C1793       C  0.52265851  0.76047470  0.26033001    -0.11490
C1794       C  0.49920667  0.77359779  0.25008780     0.05520
C1795       C  0.97639712  0.75805885  0.24142623    -0.06780
C1796       C  0.97758415  0.73027313  0.24365800    -0.07520
C1797       C  0.00107718  0.71715436  0.25360555    -0.02070
C1798       C  0.52382022  0.73266078  0.26267028     0.04750
N1799       N  0.54791150  0.72079442  0.27585378     0.67250
H1800       H  0.54018131  0.77195516  0.26789968     0.16150
H1801       H  0.96004379  0.71881434  0.23608734     0.15860
N1802       N  0.95215209  0.76984357  0.22876935     0.74960
O1803       O  0.56999021  0.72913443  0.26320299    -0.38490
O1804       O  0.54742539  0.70549127  0.30478329    -0.38440
O1805       O  0.95206569  0.78394711  0.19856710    -0.39140
O1806       O  0.93032870  0.76223958  0.24322616    -0.39210
C1807       C  0.49527539  0.51039955  0.31990175    -0.11490
C1808       C  0.48155083  0.52304244  0.29011889     0.05520
C1809       C  0.96641838  0.50831118  0.26306769    -0.06780
C1810       C  0.96844830  0.98088810  0.26322437    -0.07520
C1811       C  0.48478465  0.96837742  0.28991080    -0.02070
C1812       C  0.49721586  0.98278719  0.32004687     0.04750
N1813       N  0.51446589  0.97026214  0.34741494     0.67250
H1814       H  0.50665519  0.52205465  0.34064566     0.16150
H1815       H  0.95872155  0.96926362  0.24077308     0.15860
N1816       N  0.95070825  0.52098467  0.23375696     0.74960
O1817       O  0.53627014  0.98112182  0.35628387    -0.38490
O1818       O  0.50690578  0.94991172  0.36577761    -0.38440
O1819       O  0.94710463  0.50987864  0.20116519    -0.39140
O1820       O  0.93905603  0.54256192  0.24112858    -0.39210
Zn1821     Zn  0.50011743  0.58873911  0.71877441     1.49720
Zn1822     Zn  0.49819472  0.60510178  0.81015154     1.49360
Zn1823     Zn  0.53402137  0.63607126  0.75032705     1.49110
Zn1824     Zn  0.96790337  0.63634660  0.74963042     1.49480
O1825       O  0.50057192  0.61692999  0.75609286    -1.83350
O1826       O  0.49377679  0.55607956  0.74687091    -0.73980
O1827       O  0.53275642  0.60714371  0.83789159    -0.73800
O1828       O  0.55526653  0.62384188  0.70214905    -0.73310
O1829       O  0.48934237  0.56711368  0.80930366    -0.73990
O1830       O  0.53423384  0.58580420  0.68899843    -0.73590
O1831       O  0.55947599  0.62624905  0.79459369    -0.74180
O1832       O  0.97892769  0.67511465  0.75311529    -0.73570
O1833       O  0.96773268  0.61939156  0.84161082    -0.74320
O1834       O  0.52343335  0.67522896  0.75024796    -0.73710
O1835       O  0.94149647  0.62365941  0.79103799    -0.74180
O1836       O  0.94781558  0.62706200  0.69978518    -0.74090
O1837       O  0.96904884  0.59021298  0.68303876    -0.73880
C1838       C  0.48841171  0.55030195  0.78183870     0.77910
C1839       C  0.55579093  0.61435615  0.82684748     0.78400
C1840       C  0.55378090  0.60159347  0.68407460     0.77360
C1841       C  0.00126501  0.68753442  0.75250136     0.77740
C1842       C  0.94476944  0.61797663  0.82665347     0.78870
C1843       C  0.94972458  0.60598308  0.67920974     0.77920
Zn1844     Zn  0.50025247  0.90264096  0.71912091     1.49720
Zn1845     Zn  0.49890370  0.88729139  0.80796191     1.49360
Zn1846     Zn  0.96635481  0.85464398  0.75047319     1.49110
Zn1847     Zn  0.53268565  0.85464109  0.74979574     1.49480
O1848       O  0.49975108  0.87402558  0.75526171    -1.83350
O1849       O  0.50093425  0.93638383  0.74735523    -0.73980
O1850       O  0.97095818  0.87135953  0.84243997    -0.73800
O1851       O  0.94463701  0.86658753  0.70311135    -0.73310
O1852       O  0.48729438  0.92367718  0.80575086    -0.73990
O1853       O  0.96619650  0.90426143  0.68992139    -0.73590
O1854       O  0.94175807  0.86611301  0.79541212    -0.74180
O1855       O  0.52148734  0.81567220  0.75022373    -0.73570
O1856       O  0.53505947  0.89158998  0.83038584    -0.74320
O1857       O  0.97694328  0.81559299  0.75050642    -0.73710
O1858       O  0.55976558  0.86649307  0.79138440    -0.74180
O1859       O  0.55291766  0.86503887  0.70039370    -0.74090
O1860       O  0.53187926  0.90199068  0.68400627    -0.73880
C1861       C  0.49172860  0.94141225  0.78090713     0.77910
C1862       C  0.94720712  0.87276966  0.83026580     0.78400
C1863       C  0.94608372  0.88908204  0.68610518     0.77360
C1864       C  0.49912188  0.80325036  0.75013808     0.77740
C1865       C  0.55755124  0.88318831  0.81929921     0.78870
C1866       C  0.55104441  0.88596392  0.67985875     0.77920
Zn1867     Zn  0.64246665  0.99285828  0.54412607     1.49720
Zn1868     Zn  0.59774970  0.51907516  0.99643340     1.49360
Zn1869     Zn  0.64458475  0.99825100  0.94565439     1.49110
Zn1870     Zn  0.60989142  0.95789570  0.98617595     1.49480
O1871       O  0.62467412  0.99301805  0.99389220    -1.83350
O1872       O  0.63269925  0.52619508  0.57744093    -0.73980
O1873       O  0.60068215  0.54518756  0.95423561    -0.73800
O1874       O  0.68288040  0.99686273  0.96361615    -0.73310
O1875       O  0.59733786  0.53965383  0.54552122    -0.73990
O1876       O  0.68159294  0.99186096  0.52877108    -0.73590
O1877       O  0.63516858  0.53370728  0.91810118    -0.74180
O1878       O  0.62818671  0.93541203  0.94744635    -0.73570
O1879       O  0.56357736  0.50188677  0.98778123    -0.74320
O1880       O  0.63426411  0.96814741  0.90631402    -0.73710
O1881       O  0.57347308  0.96112576  0.96698803    -0.74180
O1882       O  0.60670003  0.93774930  0.53427197    -0.74090
O1883       O  0.62999198  0.96044629  0.57744217    -0.73880
C1884       C  0.61273031  0.54156695  0.57447259     0.77910
C1885       C  0.61558521  0.54906078  0.92500606     0.78400
C1886       C  0.69434113  0.99392158  0.99649844     0.77360
C1887       C  0.62877189  0.94368440  0.91282935     0.77740
C1888       C  0.55714208  0.97979605  0.97234802     0.78870
C1889       C  0.61498266  0.94067165  0.56868961     0.77920
Zn1890     Zn  0.85857147  0.99570082  0.94745503     1.49720
Zn1891     Zn  0.90577633  0.51863187  0.49402468     1.49360
Zn1892     Zn  0.86024349  0.99607426  0.54573333     1.49110
Zn1893     Zn  0.89327120  0.95658472  0.49276911     1.49480
O1894       O  0.87855643  0.99227186  0.49564772    -1.83350
O1895       O  0.86764524  0.53041075  0.91733395    -0.73980
O1896       O  0.90774312  0.54066077  0.54074617    -0.73800
O1897       O  0.82110846  0.99546874  0.53096151    -0.73310
O1898       O  0.90253002  0.54393458  0.95079427    -0.73990
O1899       O  0.82014187  0.99511630  0.96541841    -0.73590
O1900       O  0.87141886  0.53137331  0.57446031    -0.74180
O1901       O  0.89271872  0.93831174  0.54309627    -0.73570
O1902       O  0.93958905  0.50181512  0.48652969    -0.74320
O1903       O  0.87013503  0.96485701  0.58258488    -0.73710
O1904       O  0.93119771  0.95876987  0.47812657    -0.74180
O1905       O  0.87709542  0.93307905  0.95257577    -0.74090
O1906       O  0.87004049  0.96505528  0.91043374    -0.73880
C1907       C  0.88693518  0.54668091  0.92242657     0.77910
C1908       C  0.89233864  0.54555640  0.56896543     0.78400
C1909       C  0.80851618  0.99533059  0.49867068     0.77360
C1910       C  0.88355428  0.94367818  0.57655686     0.77740
C1911       C  0.94707895  0.97842885  0.47870107     0.78870
C1912       C  0.87748110  0.94142875  0.91795239     0.77920
C1913       C  0.73737068  0.51451697  0.97967679    -0.11490
C1914       C  0.72354138  0.99340927  0.99713824     0.05520
C1915       C  0.73774934  0.97307809  0.51593586    -0.06780
C1916       C  0.76557003  0.97484639  0.51733408    -0.07520
C1917       C  0.77935024  0.99589916  0.49962696    -0.02070
C1918       C  0.76512901  0.51628710  0.98107516     0.04750
N1919       N  0.77834022  0.53926937  0.46492686     0.67250
H1920       H  0.72630698  0.53025705  0.96601103     0.16150
H1921       H  0.77669199  0.95909639  0.53086702     0.15860
N1922       N  0.72454553  0.95003418  0.03186868     0.74960
O1923       O  0.76749305  0.55233973  0.93824679    -0.38490
O1924       O  0.79919556  0.54849796  0.48025991    -0.38440
O1925       O  0.70401346  0.94054001  0.01595028    -0.39140
O1926       O  0.73520149  0.93712171  0.55887893    -0.39210
C1927       C  0.51686642  0.95293464  0.97589449    -0.11490
C1928       C  0.52967075  0.97583290  0.96203601     0.05520
C1929       C  0.51505391  0.49714356  0.44701363    -0.06780
C1930       C  0.98766437  0.49618186  0.45050212    -0.07520
C1931       C  0.97494039  0.97499364  0.96942429    -0.02070
C1932       C  0.98940766  0.95251459  0.98083926     0.04750
N1933       N  0.97727297  0.93069047  0.00122664     0.67250
H1934       H  0.52842921  0.93678379  0.98754702     0.16150
H1935       H  0.97618062  0.51275015  0.43997868     0.15860
N1936       N  0.52767841  0.52041895  0.43057308     0.74960
O1937       O  0.98474128  0.90723816  0.99425426    -0.38490
O1938       O  0.96292464  0.93501519  0.53070938    -0.38440
O1939       O  0.54998476  0.51885358  0.91394620    -0.39140
O1940       O  0.51586868  0.54246165  0.43069510    -0.39210
C1941       C  0.59256995  0.91010668  0.66491204    -0.11490
C1942       C  0.57207001  0.89323261  0.65189079     0.05520
C1943       C  0.56909472  0.88848453  0.61179578    -0.06780
C1944       C  0.58543507  0.90247971  0.58567801    -0.07520
C1945       C  0.60439386  0.92152042  0.59830845    -0.02070
C1946       C  0.60907916  0.92400421  0.63869692     0.04750
N1947       N  0.62988921  0.94076894  0.65366534     0.67250
H1948       H  0.59500132  0.91335472  0.69585599     0.16150
H1949       H  0.58219751  0.89939294  0.55490049     0.15860
N1950       N  0.54881282  0.87074486  0.59707538     0.74960
O1951       O  0.62639729  0.95368514  0.68483530    -0.38490
O1952       O  0.65302064  0.93909516  0.63970045    -0.38440
O1953       O  0.54051510  0.85143843  0.61714980    -0.39140
O1954       O  0.54042492  0.87315034  0.56278364    -0.39210
C1955       C  0.59582389  0.88376859  0.86508204    -0.11490
C1956       C  0.58133053  0.89633186  0.83604380     0.05520
C1957       C  0.58726273  0.92321546  0.82682930    -0.06780
C1958       C  0.60557223  0.93750547  0.84981672    -0.07520
C1959       C  0.61826738  0.92575137  0.88150510    -0.02070
C1960       C  0.61465030  0.89797195  0.88744122     0.04750
N1961       N  0.62936574  0.88411551  0.91659787     0.67250
H1962       H  0.59174506  0.86303552  0.87128451     0.16150
H1963       H  0.60853386  0.95853374  0.84453558     0.15860
N1964       N  0.57407331  0.93662109  0.79546120     0.74960
O1965       O  0.61953653  0.86386096  0.93291897    -0.38490
O1966       O  0.65332596  0.89016357  0.92283854    -0.38440
O1967       O  0.57309859  0.96169607  0.79487207    -0.39140
O1968       O  0.56572247  0.92376623  0.76630250    -0.39210
C1969       C  0.91639986  0.88674176  0.62859484    -0.11490
C1970       C  0.92357613  0.89937237  0.66333997     0.05520
C1971       C  0.91174487  0.92405259  0.67336338    -0.06780
C1972       C  0.89614841  0.93712513  0.64565328    -0.07520
C1973       C  0.89143475  0.92587603  0.60894866    -0.02070
C1974       C  0.89992495  0.89940580  0.60160381     0.04750
N1975       N  0.89252910  0.88547337  0.56657575     0.67250
H1976       H  0.92459537  0.86741490  0.62175055     0.16150
H1977       H  0.88898605  0.95695294  0.65186394     0.15860
N1978       N  0.91578228  0.93632786  0.71097450     0.74960
O1979       O  0.90740532  0.86777809  0.55240605    -0.38490
O1980       O  0.86980137  0.88864102  0.55220046    -0.38440
O1981       O  0.92182769  0.92247916  0.74002981    -0.39140
O1982       O  0.90997175  0.96044460  0.71644101    -0.39210
C1983       C  0.93597691  0.91410142  0.86401413    -0.11370
C1984       C  0.92763332  0.88846129  0.85330713     0.05520
C1985       C  0.90071222  0.88119855  0.85965373    -0.06780
C1986       C  0.88371871  0.89945604  0.87895426    -0.07520
C1987       C  0.89228941  0.92538418  0.88877420    -0.02070
C1988       C  0.91857647  0.93307640  0.87922288     0.04750
N1989       N  0.92830494  0.95982330  0.88535213     0.67250
H1990       H  0.95633465  0.91997119  0.85881332     0.16150
H1991       H  0.86383270  0.89325415  0.88716049     0.15860
N1992       N  0.89059133  0.85540243  0.84846496     0.74960
O1993       O  0.95277087  0.96391793  0.89036021    -0.38490
O1994       O  0.91395430  0.97941315  0.87724995    -0.38440
O1995       O  0.90584839  0.83574781  0.84510430    -0.39140
O1996       O  0.86598208  0.85179469  0.84399217    -0.39210
C1997       C  0.59156066  0.58431203  0.59243070    -0.11490
C1998       C  0.60562907  0.56178271  0.60473450     0.05520
C1999       C  0.60704425  0.55667278  0.64502480    -0.06780
C2000       C  0.59146674  0.57181695  0.67092761    -0.07520
C2001       C  0.57537628  0.59260455  0.65791829    -0.02070
C2002       C  0.57648882  0.59990351  0.61839051     0.04750
N2003       N  0.56118827  0.62170380  0.60366387     0.67250
H2004       H  0.59108327  0.58886470  0.56171291     0.16150
H2005       H  0.59087546  0.56649017  0.70139497     0.15860
N2006       N  0.62256823  0.53526263  0.65990180     0.74960
O2007       O  0.55546114  0.62274323  0.56803600    -0.38490
O2008       O  0.55537762  0.64120224  0.62526177    -0.38440
O2009       O  0.64683087  0.53370715  0.65106614    -0.39140
O2010       O  0.61359317  0.52112675  0.68724012    -0.39210
C2011       C  0.59290831  0.59198863  0.91471428    -0.11490
C2012       C  0.60786930  0.57107232  0.89851681     0.05520
C2013       C  0.61048030  0.56961431  0.85755476    -0.06780
C2014       C  0.59622892  0.58743208  0.83426738    -0.07520
C2015       C  0.57848640  0.60579715  0.85078788    -0.02070
C2016       C  0.57792111  0.60910843  0.89154162     0.04750
N2017       N  0.56117308  0.62871607  0.90977591     0.67250
H2018       H  0.59148668  0.59390387  0.94603393     0.16150
H2019       H  0.59641794  0.58454728  0.80301815     0.15860
N2020       N  0.62474552  0.54851164  0.83883864     0.74960
O2021       O  0.55405342  0.62621543  0.94480925    -0.38490
O2022       O  0.55486997  0.64952909  0.89184393    -0.38440
O2023       O  0.61807809  0.52463571  0.84488613    -0.39140
O2024       O  0.63991310  0.55372506  0.81054668    -0.39210
C2025       C  0.89318484  0.56667156  0.63520919    -0.11490
C2026       C  0.90058128  0.56748371  0.59590875     0.05520
C2027       C  0.91972566  0.58674143  0.58397305    -0.06780
C2028       C  0.93414091  0.60099426  0.61204376    -0.07520
C2029       C  0.92869261  0.59810003  0.65160570    -0.02070
C2030       C  0.90661523  0.58219617  0.66342793     0.04750
N2031       N  0.89834404  0.58050943  0.70364624     0.67250
H2032       H  0.87796270  0.55266191  0.64420991     0.16150
H2033       H  0.95045619  0.61375075  0.60303793     0.15860
N2034       N  0.92522688  0.59153033  0.54355334     0.74960
O2035       O  0.88027287  0.56436935  0.71365008    -0.38490
O2036       O  0.90681078  0.59691260  0.72863467    -0.38440
O2037       O  0.90638487  0.59305944  0.51970486    -0.39140
O2038       O  0.94844623  0.59735224  0.53239773    -0.39210
C2039       C  0.90379967  0.59243686  0.91133047    -0.11490
C2040       C  0.89314948  0.56886171  0.89518370     0.05520
C2041       C  0.89519032  0.56491413  0.85455745    -0.06780
C2042       C  0.90995410  0.58319772  0.83214349    -0.07520
C2043       C  0.92282485  0.60532186  0.84911498    -0.02070
C2044       C  0.91863560  0.61069470  0.88899230     0.04750
N2045       N  0.92993856  0.63396403  0.90739249     0.67250
H2046       H  0.90182208  0.59583033  0.94229577     0.16150
H2047       H  0.91321870  0.57884173  0.80163573     0.15860
N2048       N  0.88483305  0.54133019  0.83617664     0.74960
O2049       O  0.93327294  0.63465295  0.94372387    -0.38490
O2050       O  0.93438271  0.65479122  0.88804914    -0.38440
O2051       O  0.86080632  0.53485334  0.84090063    -0.39140
O2052       O  0.89835137  0.52940701  0.81056648    -0.39210
C2053       C  0.52265785  0.76047454  0.76033243    -0.11490
C2054       C  0.49920617  0.77359798  0.75009049     0.05520
C2055       C  0.97639705  0.75805916  0.74142574    -0.06780
C2056       C  0.97758443  0.73027324  0.74365378    -0.07520
C2057       C  0.00107738  0.71715411  0.75360079    -0.02070
C2058       C  0.52381988  0.73266044  0.76266912     0.04750
N2059       N  0.54791089  0.72079363  0.77585280     0.67250
H2060       H  0.54018027  0.77195484  0.76790455     0.16150
H2061       H  0.96004442  0.71881466  0.73608069     0.15860
N2062       N  0.95215221  0.76984437  0.72876905     0.74960
O2063       O  0.56998989  0.72913480  0.76320472    -0.38490
O2064       O  0.54742404  0.70548889  0.80478049    -0.38440
O2065       O  0.95206649  0.78395011  0.69856900    -0.39140
O2066       O  0.93032851  0.76223895  0.74322324    -0.39210
C2067       C  0.49527994  0.51040224  0.81990554    -0.11490
C2068       C  0.48155411  0.52304399  0.79012301     0.05520
C2069       C  0.96641939  0.50831194  0.76307575    -0.06780
C2070       C  0.96844775  0.98088873  0.76323526    -0.07520
C2071       C  0.48478545  0.96837872  0.78992127    -0.02070
C2072       C  0.49721991  0.98278973  0.82005366     0.04750
N2073       N  0.51447171  0.97026591  0.84742104     0.67250
H2074       H  0.50666112  0.52205834  0.84064666     0.16150
H2075       H  0.95871871  0.96926347  0.74078686     0.15860
N2076       N  0.95070898  0.52098453  0.73376453     0.74960
O2077       O  0.53627186  0.98113109  0.85629763    -0.38490
O2078       O  0.50691626  0.94991093  0.86577691    -0.38440
O2079       O  0.94710461  0.50987726  0.70117382    -0.39140
O2080       O  0.93905817  0.54256285  0.74113415    -0.39210
loop_ 
_geom_bond_atom_site_label_1 
_geom_bond_atom_site_label_2 
_geom_bond_distance 
_geom_bond_site_symmetry_2 
_ccdc_geom_bond_type 
Zn1           O5   1.907       .  S
Zn1           O6   1.935   1_455  S
Zn1          O10   2.004       .  S
Zn1        O1057   2.000   1_455  S
Zn2           O5   1.960   1_655  S
Zn2           O7   1.994   1_655  S
Zn2           O9   1.958       .  S
Zn2        O1053   2.010       .  S
Zn3           O5   1.945       .  S
Zn3           O8   2.062       .  S
Zn3          O11   2.063       .  S
Zn3          O14   2.045       .  S
Zn4        O1045   1.937       .  S
Zn4          O12   2.026       .  S
Zn4          O15   2.046       .  S
Zn4          O16   2.047       .  S
O5        Zn1044   1.937   1_455  S
O6           C18   1.267       .  A
O7           C19   1.271       .  A
O8           C20   1.278       .  A
O9           C18   1.265       .  A
O10          C20   1.272       .  A
O11          C19   1.276       .  A
O12          C21   1.283       .  A
O13       Zn1042   2.010       .  S
O13          C22   1.271       .  A
O14        C1061   1.284       .  A
O15          C22   1.273       .  A
O16          C23   1.275       .  A
O17       Zn1041   2.000       .  S
O17          C23   1.270       .  A
C18         C248   1.441       .  S
C19         C195   1.483       .  S
C20         C181   1.481       .  S
C21        O1054   1.284       .  A
C21         C237   1.490       .  S
C22         C223   1.487       .  S
C23         C209   1.478       .  S
Zn24         O28   1.909   1_455  S
Zn24         O29   1.950       .  S
Zn24         O40   1.996       .  S
Zn24       O1073   1.997   1_455  S
Zn25         O28   1.929       .  S
Zn25         O32   1.928       .  S
Zn25         O36   1.994   1_655  S
Zn25       O1070   2.003       .  S
Zn26       O1068   1.946       .  S
Zn26         O31   2.065       .  S
Zn26         O34   2.060       .  S
Zn26         O37   2.040       .  S
Zn27         O28   1.941   1_455  S
Zn27         O35   2.035       .  S
Zn27         O38   2.065       .  S
Zn27         O39   2.047       .  S
O28       Zn1066   1.946       .  S
O29          C41   1.267   1_455  A
O30       Zn1065   2.003       .  S
O30          C42   1.274       .  A
O31          C43   1.279       .  A
O32          C41   1.258       .  A
O33       Zn1064   1.997       .  S
O33          C43   1.271       .  A
O34          C42   1.274       .  A
O35          C44   1.285   1_455  A
O36          C45   1.270       .  A
O37        C1084   1.284       .  A
O38          C45   1.277       .  A
O39          C46   1.276       .  A
O40          C46   1.271       .  A
C41         C251   1.435       .  S
C42         C164   1.491       .  S
C43         C150   1.482       .  S
C44        O1077   1.284       .  A
C44         C234   1.491       .  S
C45         C136   1.482       .  S
C46         C122   1.473       .  S
Zn47        O311   1.953   1_554  S
Zn47         O56   2.041       .  S
Zn47         O63   2.090       .  S
Zn47        O572   2.086       .  S
Zn48        O571   1.897   1_545  S
Zn48         O53   1.969       .  S
Zn48         O59   1.945       .  S
Zn48        O315   1.976       .  S
Zn49         O51   1.954       .  S
Zn49         O54   2.033       .  S
Zn49         O60   2.089       .  S
Zn49        O577   2.085       .  S
Zn50         O51   1.929       .  S
Zn50         O58   1.973       .  S
Zn50         O61   1.964       .  S
Zn50        O322   1.952       .  S
O51        Zn307   1.953       .  S
O51        Zn568   1.897       .  S
O52        Zn567   2.086   1_545  S
O52          C64   1.280       .  A
O53          C65   1.267       .  A
O54          C66   1.284       .  A
O55        Zn308   1.976   1_554  S
O55          C64   1.269       .  A
O56         C326   1.285   1_554  A
O57        Zn569   2.085   1_545  S
O57          C65   1.279       .  A
O58          C67   1.265       .  A
O59         C588   1.269   1_545  A
O60          C67   1.280       .  A
O61          C68   1.266       .  A
O62        Zn310   1.952   1_554  S
O62          C69   1.266       .  A
O63          C69   1.280       .  A
C64         C178   1.495       .  S
C65         C192   1.494       .  S
C66         O316   1.285       .  A
C66          C94   1.473       .  S
C67         C139   1.497       .  S
C68         O579   1.269       .  A
C68         C108   1.444       .  S
C69         C125   1.500       .  S
Zn70        O334   1.955       .  S
Zn70         O79   2.031       .  S
Zn70         O86   2.077       .  S
Zn70        O595   2.082       .  S
Zn71        O594   1.901   1_545  S
Zn71         O76   1.949   1_556  S
Zn71         O82   1.925       .  S
Zn71        O338   1.973       .  S
Zn72         O74   1.960   1_554  S
Zn72         O77   2.041       .  S
Zn72         O83   2.091       .  S
Zn72        O600   2.101       .  S
Zn73         O74   1.950       .  S
Zn73         O81   1.966   1_556  S
Zn73         O84   1.977       .  S
Zn73        O345   1.988       .  S
O74        Zn330   1.955       .  S
O74        Zn591   1.901       .  S
O75        Zn590   2.082   1_545  S
O75          C87   1.278       .  A
O76          C88   1.265       .  A
O77          C89   1.283   1_554  A
O78        Zn331   1.973       .  S
O78          C87   1.266       .  A
O79         C349   1.283       .  A
O80        Zn592   2.101   1_545  S
O80          C88   1.282       .  A
O81          C90   1.267       .  A
O82         C611   1.265   1_545  A
O83          C90   1.282       .  A
O84          C91   1.267       .  A
O85        Zn333   1.988       .  S
O85          C92   1.266       .  A
O86          C92   1.278       .  A
C87         C220   1.492       .  S
C88         C206   1.494       .  S
C89         O339   1.283       .  A
C89          C97   1.472       .  S
C90         C153   1.492       .  S
C91         O602   1.265       .  A
C91         C371   1.451       .  S
C92         C167   1.486       .  S
C93          C98   1.403       .  A
C93         C614   1.402   1_545  A
C93         H100   1.084       .  S
C94         C613   1.402       .  A
C94         C355   1.416       .  A
C95          C96   1.406       .  A
C95         C354   1.416   1_554  A
C95         N362   1.442       .  S
C96          C97   1.402   1_554  A
C96         H101   1.084       .  S
C97         C878   1.414       .  A
C98         C877   1.414   1_545  A
C98         N359   1.442       .  S
N99         C358   1.442       .  S
N99         O104   1.263       .  A
N99         O363   1.263       .  A
N102        C355   1.442       .  S
N102        O105   1.263       .  A
N102        O366   1.263       .  A
O103        N359   1.263       .  A
O106        N362   1.263       .  A
C107        C108   1.401       .  A
C107       C1152   1.394   1_455  A
C107        H114   1.085       .  S
C108        C889   1.410       .  A
C109        C888   1.410       .  A
C109       C1150   1.386   1_455  A
C109        N116   1.445   1_565  S
C110       C1149   1.386       .  A
C110        C891   1.402       .  A
C110        H115   1.084   1_565  S
C111        C351   1.451       .  S
C111        C112   1.410       .  A
C111        C890   1.402       .  A
C112       C1147   1.394       .  A
C112        N113   1.437       .  S
N113        O117   1.262       .  A
N113        O378   1.263       .  A
N116        O120   1.263       .  A
N116        O379   1.263       .  A
O118        N373   1.263       .  A
O119        N376   1.263       .  A
C121        C122   1.405       .  A
C121        C126   1.409       .  A
C121        H128   1.084       .  S
C122        C123   1.408       .  A
C123        C124   1.404       .  A
C123        N130   1.443       .  S
C124        C125   1.415       .  A
C124        H129   1.083       .  S
C125        C126   1.416       .  A
C126        N127   1.436       .  S
N127        O131   1.263       .  A
N127        O132   1.262       .  A
N130        O133   1.263       .  A
N130        O134   1.263       .  A
C135        C136   1.399       .  A
C135        C140   1.412       .  A
C135        H142   1.083       .  S
C136        C137   1.420       .  A
C137        C138   1.409       .  A
C137        N144   1.445       .  S
C138        C139   1.404       .  A
C138        H143   1.083       .  S
C139        C140   1.423       .  A
C140        N141   1.439       .  S
N141        O145   1.263       .  A
N141        O146   1.263       .  A
N144        O147   1.263       .  A
N144        O148   1.262       .  A
C149        C150   1.398       .  A
C149        C154   1.409       .  A
C149        H156   1.084       .  S
C150        C151   1.422       .  A
C151        C152   1.410       .  A
C151        N158   1.445       .  S
C152        C153   1.401       .  A
C152        H157   1.083       .  S
C153        C154   1.423       .  A
C154        N155   1.440       .  S
N155        O159   1.263       .  A
N155        O160   1.263       .  A
N158        O161   1.263       .  A
N158        O162   1.263       .  A
C163        C164   1.401       .  A
C163        C168   1.399       .  A
C163        H170   1.080       .  S
C164        C165   1.419       .  A
C165        C166   1.421       .  A
C165        N172   1.441       .  S
C166        C167   1.410       .  A
C166        H171   1.084       .  S
C167        C168   1.415       .  A
C168        N169   1.442       .  S
N169        O173   1.262       .  A
N169        O174   1.261       .  A
N172        O175   1.262       .  A
N172        O176   1.263       .  A
C177        C178   1.411       .  A
C177        C182   1.409       .  A
C177        H184   1.084       .  S
C178        C179   1.414       .  A
C179        C180   1.409       .  A
C179        N186   1.436       .  S
C180        C181   1.406       .  A
C180        H185   1.084       .  S
C181        C182   1.412       .  A
C182        N183   1.443       .  S
N183        O187   1.263       .  A
N183        O188   1.262       .  A
N186        O189   1.262       .  A
N186        O190   1.263       .  A
C191        C192   1.410       .  A
C191        C196   1.406       .  A
C191        H198   1.084       .  S
C192        C193   1.417       .  A
C193        C194   1.411       .  A
C193        N200   1.435       .  S
C194        C195   1.407       .  A
C194        H199   1.084       .  S
C195        C196   1.412       .  A
C196        N197   1.442       .  S
N197        O201   1.263       .  A
N197        O202   1.263       .  A
N200        O203   1.262       .  A
N200        O204   1.262       .  A
C205        C206   1.402       .  A
C205        C210   1.414       .  A
C205        H212   1.083       .  S
C206        C207   1.422       .  A
C207        C208   1.402       .  A
C207        N214   1.439       .  S
C208        C209   1.396       .  A
C208        H213   1.084       .  S
C209        C210   1.424       .  A
C210        N211   1.446       .  S
N211        O215   1.263       .  A
N211        O216   1.261       .  A
N214        O217   1.262       .  A
N214        O218   1.263       .  A
C219        C220   1.409       .  A
C219        C224   1.409       .  A
C219        H226   1.082       .  S
C220        C221   1.414       .  A
C221        C222   1.409       .  A
C221        N228   1.436       .  S
C222        C223   1.408       .  A
C222        H227   1.083       .  S
C223        C224   1.412       .  A
C224        N225   1.442       .  S
N225        O229   1.263       .  A
N225        O230   1.263       .  A
N228        O231   1.262       .  A
N228        O232   1.263       .  A
C233        C234   1.407   1_455  A
C233        C238   1.404       .  A
C233        H240   1.083       .  S
C234       C1275   1.417       .  A
C235        C236   1.402       .  A
C235       C1274   1.417       .  A
C235        N242   1.435       .  S
C236        C237   1.406       .  A
C236        H241   1.084       .  S
C237       C1278   1.416       .  A
C238       C1277   1.416       .  A
C238        N239   1.436       .  S
N239        O243   1.263       .  A
N239        O244   1.263       .  A
N242        O245   1.262       .  A
N242        O246   1.263       .  A
C247        C248   1.400       .  A
C247        C772   1.393   1_545  A
C247        H254   1.084   1_655  S
C248       C1289   1.410       .  A
C249       C1288   1.410       .  A
C249        C770   1.384   1_545  A
C249        N256   1.442       .  S
C250        C769   1.384       .  A
C250       C1291   1.394       .  A
C250        H255   1.083       .  S
C251        C252   1.408       .  A
C251       C1290   1.394       .  A
C252        C767   1.393       .  A
C252        N253   1.438   1_655  S
N253        O257   1.262       .  A
N253        O258   1.262       .  A
N256        O259   1.263       .  A
N256        O260   1.262       .  A
Zn261       O265   1.907       .  S
Zn261       O266   1.935   1_455  S
Zn261       O270   2.004       .  S
Zn261      O1317   2.000   1_455  S
Zn262       O265   1.960   1_655  S
Zn262       O267   1.994   1_655  S
Zn262       O269   1.958       .  S
Zn262      O1313   2.010       .  S
Zn263       O265   1.945       .  S
Zn263       O268   2.062       .  S
Zn263       O271   2.063       .  S
Zn263       O274   2.045       .  S
Zn264      O1305   1.937       .  S
Zn264       O272   2.026       .  S
Zn264       O275   2.046       .  S
Zn264       O276   2.047       .  S
O265      Zn1304   1.937   1_455  S
O266        C278   1.267       .  A
O267        C279   1.271       .  A
O268        C280   1.278       .  A
O269        C278   1.265       .  A
O270        C280   1.272       .  A
O271        C279   1.276       .  A
O272        C281   1.283       .  A
O273      Zn1302   2.010       .  S
O273        C282   1.271       .  A
O274       C1321   1.284       .  A
O275        C282   1.273       .  A
O276        C283   1.275       .  A
O277      Zn1301   2.000       .  S
O277        C283   1.270       .  A
C278        C508   1.441       .  S
C279        C455   1.483       .  S
C280        C441   1.481       .  S
C281       O1314   1.284       .  A
C281        C497   1.490       .  S
C282        C483   1.487       .  S
C283        C469   1.478       .  S
Zn284       O288   1.909   1_455  S
Zn284       O289   1.950       .  S
Zn284      O1333   1.997   1_455  S
Zn284       O300   1.996       .  S
Zn285       O288   1.929       .  S
Zn285      O1330   2.003       .  S
Zn285       O292   1.928       .  S
Zn285       O296   1.994   1_655  S
Zn286      O1328   1.946       .  S
Zn286       O291   2.065       .  S
Zn286       O294   2.060       .  S
Zn286       O297   2.040       .  S
Zn287       O288   1.941   1_455  S
Zn287       O295   2.035       .  S
Zn287       O298   2.065       .  S
Zn287       O299   2.047       .  S
O288      Zn1326   1.946       .  S
O289        C301   1.267   1_455  A
O290      Zn1325   2.003       .  S
O290        C302   1.274       .  A
O291        C303   1.279       .  A
O292        C301   1.258       .  A
O293      Zn1324   1.997       .  S
O293        C303   1.271       .  A
O294        C302   1.274       .  A
O295        C304   1.285   1_455  A
O296        C305   1.270       .  A
O297       C1344   1.284       .  A
O298        C305   1.277       .  A
O299        C306   1.276       .  A
O300        C306   1.271       .  A
C301        C511   1.435       .  S
C302        C424   1.491       .  S
C303        C410   1.482       .  S
C304       O1337   1.284       .  A
C304        C494   1.491       .  S
C305        C396   1.482       .  S
C306        C382   1.473       .  S
Zn307       O832   2.086       .  S
Zn307       O316   2.041       .  S
Zn307       O323   2.090       .  S
Zn308       O831   1.897   1_545  S
Zn308       O313   1.969       .  S
Zn308       O319   1.945       .  S
Zn309       O311   1.954       .  S
Zn309       O314   2.033       .  S
Zn309       O837   2.085       .  S
Zn309       O320   2.089       .  S
Zn310       O311   1.929       .  S
Zn310       O318   1.973       .  S
Zn310       O321   1.964       .  S
O311       Zn828   1.897       .  S
O312       Zn827   2.086   1_545  S
O312        C324   1.280       .  A
O313        C325   1.267       .  A
O314        C326   1.284       .  A
O315        C324   1.269       .  A
O317       Zn829   2.085   1_545  S
O317        C325   1.279       .  A
O318        C327   1.265       .  A
O319        C848   1.269   1_545  A
O320        C327   1.280       .  A
O321        C328   1.266       .  A
O322        C329   1.266       .  A
O323        C329   1.280       .  A
C324        C438   1.495       .  S
C325        C452   1.495       .  S
C326        C354   1.473       .  S
C327        C399   1.497       .  S
C328        O839   1.269       .  A
C328        C368   1.444       .  S
C329        C385   1.500       .  S
Zn330       O855   2.082       .  S
Zn330       O339   2.031       .  S
Zn330       O346   2.077       .  S
Zn331       O854   1.901   1_545  S
Zn331       O336   1.949       .  S
Zn331       O342   1.925       .  S
Zn332       O334   1.960       .  S
Zn332       O337   2.041       .  S
Zn332       O860   2.101       .  S
Zn332       O343   2.091       .  S
Zn333       O334   1.950       .  S
Zn333       O341   1.966       .  S
Zn333       O344   1.978       .  S
O334       Zn851   1.901       .  S
O335       Zn850   2.082   1_545  S
O335        C347   1.278       .  A
O336        C348   1.265       .  A
O337        C349   1.283       .  A
O338        C347   1.266       .  A
O340       Zn852   2.101   1_545  S
O340        C348   1.282       .  A
O341        C350   1.267       .  A
O342        C871   1.265   1_545  A
O343        C350   1.282       .  A
O344        C351   1.267       .  A
O345        C352   1.266       .  A
O346        C352   1.278       .  A
C347        C480   1.492       .  S
C348        C466   1.494       .  S
C349        C357   1.472       .  S
C350        C413   1.492       .  S
C351        O862   1.265       .  A
C352        C427   1.486       .  S
C353        C874   1.402   1_545  A
C353        C358   1.403       .  A
C353        H360   1.084       .  S
C354        C873   1.402       .  A
C355        C356   1.406       .  A
C356        C357   1.402       .  A
C356        H361   1.084       .  S
C357        C618   1.414       .  A
C358        C617   1.414   1_545  A
N359        O364   1.263       .  A
N362        O365   1.263       .  A
C367        C368   1.401       .  A
C367       C1412   1.394   1_455  A
C367        H374   1.085       .  S
C368        C629   1.410       .  A
C369        C628   1.410       .  A
C369       C1410   1.386   1_455  A
C369        N376   1.445   1_565  S
C370       C1409   1.386       .  A
C370        C631   1.402       .  A
C370        H375   1.084   1_565  S
C371        C630   1.402       .  A
C371        C372   1.410       .  A
C372       C1407   1.394       .  A
C372        N373   1.437   1_556  S
N373        O377   1.262   1_554  A
N376        O380   1.263       .  A
C381        C382   1.405       .  A
C381        C386   1.409       .  A
C381        H388   1.084       .  S
C382        C383   1.408       .  A
C383        C384   1.404       .  A
C383        N390   1.443       .  S
C384        C385   1.415       .  A
C384        H389   1.083       .  S
C385        C386   1.416       .  A
C386        N387   1.436       .  S
N387        O391   1.263       .  A
N387        O392   1.262       .  A
N390        O393   1.263       .  A
N390        O394   1.263       .  A
C395        C396   1.399       .  A
C395        C400   1.412       .  A
C395        H402   1.083       .  S
C396        C397   1.420       .  A
C397        C398   1.409       .  A
C397        N404   1.445       .  S
C398        C399   1.404       .  A
C398        H403   1.083       .  S
C399        C400   1.423       .  A
C400        N401   1.439       .  S
N401        O405   1.263       .  A
N401        O406   1.263       .  A
N404        O407   1.263       .  A
N404        O408   1.262       .  A
C409        C410   1.398       .  A
C409        C414   1.409       .  A
C409        H416   1.084       .  S
C410        C411   1.422       .  A
C411        C412   1.410       .  A
C411        N418   1.445       .  S
C412        C413   1.401       .  A
C412        H417   1.083       .  S
C413        C414   1.423       .  A
C414        N415   1.440       .  S
N415        O419   1.263       .  A
N415        O420   1.263       .  A
N418        O421   1.263       .  A
N418        O422   1.263       .  A
C423        C424   1.401       .  A
C423        C428   1.399       .  A
C423        H430   1.080       .  S
C424        C425   1.419       .  A
C425        C426   1.421       .  A
C425        N432   1.441       .  S
C426        C427   1.410       .  A
C426        H431   1.084       .  S
C427        C428   1.415       .  A
C428        N429   1.442       .  S
N429        O433   1.262       .  A
N429        O434   1.261       .  A
N432        O435   1.262       .  A
N432        O436   1.263       .  A
C437        C438   1.411       .  A
C437        C442   1.409       .  A
C437        H444   1.084       .  S
C438        C439   1.414       .  A
C439        C440   1.409       .  A
C439        N446   1.436       .  S
C440        C441   1.406       .  A
C440        H445   1.084       .  S
C441        C442   1.412       .  A
C442        N443   1.443       .  S
N443        O447   1.263       .  A
N443        O448   1.262       .  A
N446        O449   1.262       .  A
N446        O450   1.263       .  A
C451        C452   1.410       .  A
C451        C456   1.406       .  A
C451        H458   1.084       .  S
C452        C453   1.417       .  A
C453        C454   1.411       .  A
C453        N460   1.435       .  S
C454        C455   1.407       .  A
C454        H459   1.084       .  S
C455        C456   1.412       .  A
C456        N457   1.442       .  S
N457        O461   1.263       .  A
N457        O462   1.263       .  A
N460        O463   1.262       .  A
N460        O464   1.262       .  A
C465        C466   1.402       .  A
C465        C470   1.414       .  A
C465        H472   1.083       .  S
C466        C467   1.422       .  A
C467        C468   1.402       .  A
C467        N474   1.439       .  S
C468        C469   1.396       .  A
C468        H473   1.084       .  S
C469        C470   1.424       .  A
C470        N471   1.446       .  S
N471        O475   1.263       .  A
N471        O476   1.261       .  A
N474        O477   1.262       .  A
N474        O478   1.263       .  A
C479        C480   1.409       .  A
C479        C484   1.409       .  A
C479        H486   1.082       .  S
C480        C481   1.414       .  A
C481        C482   1.409       .  A
C481        N488   1.436       .  S
C482        C483   1.408       .  A
C482        H487   1.083       .  S
C483        C484   1.412       .  A
C484        N485   1.442       .  S
N485        O489   1.263       .  A
N485        O490   1.263       .  A
N488        O491   1.262       .  A
N488        O492   1.263       .  A
C493        C494   1.407   1_455  A
C493        C498   1.404       .  A
C493        H500   1.083       .  S
C494       C1535   1.417       .  A
C495       C1534   1.417       .  A
C495        C496   1.402       .  A
C495        N502   1.435       .  S
C496        C497   1.406       .  A
C496        H501   1.084       .  S
C497       C1538   1.416       .  A
C498       C1537   1.416       .  A
C498        N499   1.436       .  S
N499        O503   1.263       .  A
N499        O504   1.263       .  A
N502        O505   1.262       .  A
N502        O506   1.263       .  A
C507        C508   1.400       .  A
C507       C1032   1.393   1_545  A
C507        H514   1.084   1_655  S
C508       C1549   1.410       .  A
C509       C1548   1.410       .  A
C509       C1030   1.384   1_545  A
C509        N516   1.442       .  S
C510       C1029   1.384       .  A
C510       C1551   1.394       .  A
C510        H515   1.083       .  S
C511       C1550   1.394       .  A
C511        C512   1.408       .  A
C512       C1027   1.393       .  A
C512        N513   1.438   1_655  S
N513        O517   1.262       .  A
N513        O518   1.262       .  A
N516        O519   1.263       .  A
N516        O520   1.262       .  A
Zn521       O525   1.907       .  S
Zn521       O526   1.935   1_455  S
Zn521       O530   2.004       .  S
Zn521      O1577   2.000   1_455  S
Zn522       O525   1.960   1_655  S
Zn522       O527   1.994   1_655  S
Zn522       O529   1.958       .  S
Zn522      O1573   2.010       .  S
Zn523       O525   1.945       .  S
Zn523       O528   2.062       .  S
Zn523       O531   2.063       .  S
Zn523       O534   2.045       .  S
Zn524      O1565   1.937       .  S
Zn524       O532   2.026       .  S
Zn524       O535   2.046       .  S
Zn524       O536   2.047       .  S
O525      Zn1564   1.937   1_455  S
O526        C538   1.267       .  A
O527        C539   1.271       .  A
O528        C540   1.278       .  A
O529        C538   1.265       .  A
O530        C540   1.272       .  A
O531        C539   1.276       .  A
O532        C541   1.283       .  A
O533      Zn1562   2.010       .  S
O533        C542   1.271       .  A
O534       C1581   1.284       .  A
O535        C542   1.273       .  A
O536        C543   1.275       .  A
O537      Zn1561   2.000       .  S
O537        C543   1.270       .  A
C538        C768   1.441       .  S
C539        C715   1.483       .  S
C540        C701   1.481       .  S
C541       O1574   1.284       .  A
C541        C757   1.490       .  S
C542        C743   1.487       .  S
C543        C729   1.478       .  S
Zn544       O548   1.909   1_455  S
Zn544       O549   1.950       .  S
Zn544      O1593   1.997   1_455  S
Zn544       O560   1.996       .  S
Zn545       O548   1.929       .  S
Zn545      O1590   2.003       .  S
Zn545       O552   1.928       .  S
Zn545       O556   1.994   1_655  S
Zn546      O1588   1.946       .  S
Zn546       O551   2.065       .  S
Zn546       O554   2.060       .  S
Zn546       O557   2.040       .  S
Zn547       O548   1.941   1_455  S
Zn547       O555   2.035       .  S
Zn547       O558   2.065       .  S
Zn547       O559   2.047       .  S
O548      Zn1586   1.946       .  S
O549        C561   1.267   1_455  A
O550      Zn1585   2.003       .  S
O550        C562   1.274       .  A
O551        C563   1.279       .  A
O552        C561   1.258       .  A
O553      Zn1584   1.997       .  S
O553        C563   1.271       .  A
O554        C562   1.274       .  A
O555        C564   1.285   1_455  A
O556        C565   1.270       .  A
O557       C1604   1.284       .  A
O558        C565   1.277       .  A
O559        C566   1.276       .  A
O560        C566   1.271       .  A
C561        C771   1.435       .  S
C562        C684   1.491       .  S
C563        C670   1.482       .  S
C564       O1597   1.284       .  A
C564        C754   1.491       .  S
C565        C656   1.482       .  S
C566        C642   1.473       .  S
Zn567       O831   1.953   1_554  S
Zn567       O576   2.041       .  S
Zn567       O583   2.090       .  S
Zn568       O573   1.969       .  S
Zn568       O835   1.976       .  S
Zn568       O579   1.945       .  S
Zn569       O571   1.954       .  S
Zn569       O574   2.033       .  S
Zn569       O580   2.089       .  S
Zn570       O571   1.929       .  S
Zn570       O578   1.973       .  S
Zn570       O581   1.964       .  S
Zn570       O842   1.952       .  S
O571       Zn827   1.953       .  S
O572        C584   1.280       .  A
O573        C585   1.267       .  A
O574        C586   1.284       .  A
O575       Zn828   1.976   1_554  S
O575        C584   1.269       .  A
O576        C846   1.285   1_554  A
O577        C585   1.279       .  A
O578        C587   1.265       .  A
O580        C587   1.280       .  A
O581        C588   1.266       .  A
O582       Zn830   1.952   1_554  S
O582        C589   1.266       .  A
O583        C589   1.280       .  A
C584        C698   1.495       .  S
C585        C712   1.494       .  S
C586        O836   1.285       .  A
C586        C614   1.473       .  S
C587        C659   1.497       .  S
C588        C628   1.444       .  S
C589        C645   1.500       .  S
Zn590       O854   1.955       .  S
Zn590       O599   2.031       .  S
Zn590       O606   2.077       .  S
Zn591       O596   1.949   1_556  S
Zn591       O858   1.973       .  S
Zn591       O602   1.925       .  S
Zn592       O594   1.960   1_554  S
Zn592       O597   2.041       .  S
Zn592       O603   2.091       .  S
Zn593       O594   1.950       .  S
Zn593       O601   1.966   1_556  S
Zn593       O604   1.977       .  S
Zn593       O865   1.988       .  S
O594       Zn850   1.955       .  S
O595        C607   1.278       .  A
O596        C608   1.265       .  A
O597        C609   1.283   1_554  A
O598       Zn851   1.973       .  S
O598        C607   1.266       .  A
O599        C869   1.283       .  A
O600        C608   1.282       .  A
O601        C610   1.267       .  A
O603        C610   1.282       .  A
O604        C611   1.267       .  A
O605       Zn853   1.988       .  S
O605        C612   1.266       .  A
O606        C612   1.278       .  A
C607        C740   1.492       .  S
C608        C726   1.494       .  S
C609        O859   1.283       .  A
C609        C617   1.472       .  S
C610        C673   1.492       .  S
C611        C891   1.451       .  S
C612        C687   1.486       .  S
C613        C618   1.403       .  A
C613        H620   1.084       .  S
C614        C875   1.416       .  A
C615        C874   1.416   1_554  A
C615        C616   1.406       .  A
C615        N882   1.442       .  S
C616        C617   1.402   1_554  A
C616        H621   1.084       .  S
C618        N879   1.442       .  S
N619        C878   1.442       .  S
N619        O883   1.263       .  A
N619        O624   1.263       .  A
N622        C875   1.442       .  S
N622        O625   1.263       .  A
N622        O886   1.263       .  A
O623        N879   1.263       .  A
O626        N882   1.263       .  A
C627        C628   1.401       .  A
C627       C1672   1.394   1_455  A
C627        H634   1.085       .  S
C629       C1670   1.386   1_455  A
C629        N636   1.445       .  S
C630       C1669   1.386       .  A
C630        H635   1.084       .  S
C631        C871   1.451       .  S
C631        C632   1.410       .  A
C632       C1667   1.394       .  A
C632        N633   1.437       .  S
N633        O637   1.262       .  A
N633        O898   1.263       .  A
N636        O899   1.263       .  A
N636        O640   1.263       .  A
O638        N893   1.263       .  A
O639        N896   1.263       .  A
C641        C642   1.405       .  A
C641        C646   1.409       .  A
C641        H648   1.084       .  S
C642        C643   1.408       .  A
C643        C644   1.404       .  A
C643        N650   1.443       .  S
C644        C645   1.415       .  A
C644        H649   1.083       .  S
C645        C646   1.416       .  A
C646        N647   1.436       .  S
N647        O651   1.263       .  A
N647        O652   1.262       .  A
N650        O653   1.263       .  A
N650        O654   1.263       .  A
C655        C656   1.399       .  A
C655        C660   1.412       .  A
C655        H662   1.083       .  S
C656        C657   1.420       .  A
C657        C658   1.409       .  A
C657        N664   1.445       .  S
C658        C659   1.404       .  A
C658        H663   1.083       .  S
C659        C660   1.423       .  A
C660        N661   1.439       .  S
N661        O665   1.263       .  A
N661        O666   1.263       .  A
N664        O667   1.263       .  A
N664        O668   1.262       .  A
C669        C670   1.398       .  A
C669        C674   1.409       .  A
C669        H676   1.084       .  S
C670        C671   1.422       .  A
C671        C672   1.410       .  A
C671        N678   1.445       .  S
C672        C673   1.401       .  A
C672        H677   1.083       .  S
C673        C674   1.423       .  A
C674        N675   1.440       .  S
N675        O679   1.263       .  A
N675        O680   1.263       .  A
N678        O681   1.263       .  A
N678        O682   1.263       .  A
C683        C684   1.401       .  A
C683        C688   1.399       .  A
C683        H690   1.080       .  S
C684        C685   1.419       .  A
C685        C686   1.421       .  A
C685        N692   1.441       .  S
C686        C687   1.410       .  A
C686        H691   1.084       .  S
C687        C688   1.415       .  A
C688        N689   1.442       .  S
N689        O693   1.262       .  A
N689        O694   1.261       .  A
N692        O695   1.262       .  A
N692        O696   1.263       .  A
C697        C698   1.411       .  A
C697        C702   1.409       .  A
C697        H704   1.084       .  S
C698        C699   1.414       .  A
C699        C700   1.409       .  A
C699        N706   1.436       .  S
C700        C701   1.406       .  A
C700        H705   1.084       .  S
C701        C702   1.412       .  A
C702        N703   1.443       .  S
N703        O707   1.263       .  A
N703        O708   1.262       .  A
N706        O709   1.262       .  A
N706        O710   1.263       .  A
C711        C712   1.410       .  A
C711        C716   1.406       .  A
C711        H718   1.084       .  S
C712        C713   1.417       .  A
C713        C714   1.411       .  A
C713        N720   1.435       .  S
C714        C715   1.407       .  A
C714        H719   1.084       .  S
C715        C716   1.412       .  A
C716        N717   1.442       .  S
N717        O721   1.263       .  A
N717        O722   1.263       .  A
N720        O723   1.262       .  A
N720        O724   1.262       .  A
C725        C726   1.402       .  A
C725        C730   1.414       .  A
C725        H732   1.083       .  S
C726        C727   1.422       .  A
C727        C728   1.402       .  A
C727        N734   1.439       .  S
C728        C729   1.396       .  A
C728        H733   1.084       .  S
C729        C730   1.424       .  A
C730        N731   1.446       .  S
N731        O735   1.263       .  A
N731        O736   1.261       .  A
N734        O737   1.262       .  A
N734        O738   1.263       .  A
C739        C740   1.409       .  A
C739        C744   1.409       .  A
C739        H746   1.082       .  S
C740        C741   1.414       .  A
C741        C742   1.409       .  A
C741        N748   1.436       .  S
C742        C743   1.408       .  A
C742        H747   1.083       .  S
C743        C744   1.412       .  A
C744        N745   1.442       .  S
N745        O749   1.263       .  A
N745        O750   1.263       .  A
N748        O751   1.262       .  A
N748        O752   1.263       .  A
C753        C754   1.407   1_455  A
C753        C758   1.404       .  A
C753        H760   1.083       .  S
C754       C1795   1.417       .  A
C755       C1794   1.417       .  A
C755        C756   1.402       .  A
C755        N762   1.435       .  S
C756        C757   1.406       .  A
C756        H761   1.084       .  S
C757       C1798   1.416       .  A
C758       C1797   1.416       .  A
C758        N759   1.436       .  S
N759        O763   1.263       .  A
N759        O764   1.263       .  A
N762        O765   1.262       .  A
N762        O766   1.263       .  A
C767        C768   1.400       .  A
C767        H774   1.084   1_655  S
C768       C1809   1.410       .  A
C769       C1808   1.410       .  A
C769        N776   1.442       .  S
C770       C1811   1.394       .  A
C770        H775   1.083       .  S
C771       C1810   1.394       .  A
C771        C772   1.408       .  A
C772        N773   1.438   1_655  S
N773        O777   1.262       .  A
N773        O778   1.262       .  A
N776        O779   1.263       .  A
N776        O780   1.262       .  A
Zn781       O785   1.907       .  S
Zn781       O786   1.935   1_455  S
Zn781       O790   2.004       .  S
Zn781      O1837   2.000   1_455  S
Zn782       O785   1.960   1_655  S
Zn782       O787   1.994   1_655  S
Zn782       O789   1.958       .  S
Zn782      O1833   2.010       .  S
Zn783       O785   1.945       .  S
Zn783       O788   2.062       .  S
Zn783       O791   2.063       .  S
Zn783       O794   2.045       .  S
Zn784      O1825   1.937       .  S
Zn784       O792   2.026       .  S
Zn784       O795   2.046       .  S
Zn784       O796   2.047       .  S
O785      Zn1824   1.937   1_455  S
O786        C798   1.267       .  A
O787        C799   1.271       .  A
O788        C800   1.278       .  A
O789        C798   1.265       .  A
O790        C800   1.272       .  A
O791        C799   1.276       .  A
O792        C801   1.283       .  A
O793      Zn1822   2.010       .  S
O793        C802   1.271       .  A
O794       C1841   1.284       .  A
O795        C802   1.273       .  A
O796        C803   1.275       .  A
O797      Zn1821   2.000       .  S
O797        C803   1.270       .  A
C798       C1028   1.441       .  S
C799        C975   1.483       .  S
C800        C961   1.481       .  S
C801       O1834   1.284       .  A
C801       C1017   1.490       .  S
C802       C1003   1.487       .  S
C803        C989   1.478       .  S
Zn804       O808   1.909   1_455  S
Zn804       O809   1.950       .  S
Zn804      O1853   1.997   1_455  S
Zn804       O820   1.996       .  S
Zn805       O808   1.929       .  S
Zn805      O1850   2.003       .  S
Zn805       O812   1.928       .  S
Zn805       O816   1.994   1_655  S
Zn806      O1848   1.946       .  S
Zn806       O811   2.065       .  S
Zn806       O814   2.060       .  S
Zn806       O817   2.040       .  S
Zn807       O808   1.941   1_455  S
Zn807       O815   2.035       .  S
Zn807       O818   2.065       .  S
Zn807       O819   2.047       .  S
O808      Zn1846   1.946       .  S
O809        C821   1.267   1_455  A
O810      Zn1845   2.003       .  S
O810        C822   1.274       .  A
O811        C823   1.279       .  A
O812        C821   1.258       .  A
O813      Zn1844   1.997       .  S
O813        C823   1.271       .  A
O814        C822   1.274       .  A
O815        C824   1.285   1_455  A
O816        C825   1.270       .  A
O817       C1864   1.284       .  A
O818        C825   1.277       .  A
O819        C826   1.276       .  A
O820        C826   1.271       .  A
C821       C1031   1.435       .  S
C822        C944   1.491       .  S
C823        C930   1.482       .  S
C824       O1857   1.284       .  A
C824       C1014   1.491       .  S
C825        C916   1.482       .  S
C826        C902   1.473       .  S
Zn827       O836   2.041       .  S
Zn827       O843   2.090       .  S
Zn828       O833   1.969       .  S
Zn828       O839   1.945       .  S
Zn829       O831   1.954       .  S
Zn829       O834   2.033       .  S
Zn829       O840   2.089       .  S
Zn830       O831   1.929       .  S
Zn830       O838   1.973       .  S
Zn830       O841   1.964       .  S
O832        C844   1.280       .  A
O833        C845   1.267       .  A
O834        C846   1.284       .  A
O835        C844   1.269       .  A
O837        C845   1.279       .  A
O838        C847   1.265       .  A
O840        C847   1.280       .  A
O841        C848   1.266       .  A
O842        C849   1.266       .  A
O843        C849   1.280       .  A
C844        C958   1.495       .  S
C845        C972   1.495       .  S
C846        C874   1.473       .  S
C847        C919   1.497       .  S
C848        C888   1.444       .  S
C849        C905   1.500       .  S
Zn850       O859   2.031       .  S
Zn850       O866   2.077       .  S
Zn851       O856   1.949       .  S
Zn851       O862   1.925       .  S
Zn852       O854   1.960       .  S
Zn852       O857   2.041       .  S
Zn852       O863   2.091       .  S
Zn853       O854   1.950       .  S
Zn853       O861   1.966       .  S
Zn853       O864   1.978       .  S
O855        C867   1.278       .  A
O856        C868   1.265       .  A
O857        C869   1.283       .  A
O858        C867   1.266       .  A
O860        C868   1.282       .  A
O861        C870   1.267       .  A
O863        C870   1.282       .  A
O864        C871   1.267       .  A
O865        C872   1.266       .  A
O866        C872   1.278       .  A
C867       C1000   1.492       .  S
C868        C986   1.494       .  S
C869        C877   1.472       .  S
C870        C933   1.492       .  S
C872        C947   1.486       .  S
C873        C878   1.403       .  A
C873        H880   1.084       .  S
C875        C876   1.406       .  A
C876        C877   1.402       .  A
C876        H881   1.084       .  S
N879        O884   1.263       .  A
N882        O885   1.263       .  A
C887        C888   1.401       .  A
C887       C1932   1.394   1_455  A
C887        H894   1.085       .  S
C889       C1930   1.386   1_455  A
C889        N896   1.445       .  S
C890       C1929   1.386       .  A
C890        H895   1.084       .  S
C891        C892   1.410       .  A
C892       C1927   1.394       .  A
C892        N893   1.437   1_556  S
N893        O897   1.262   1_554  A
N896        O900   1.263       .  A
C901        C902   1.405       .  A
C901        C906   1.409       .  A
C901        H908   1.084       .  S
C902        C903   1.408       .  A
C903        C904   1.404       .  A
C903        N910   1.443       .  S
C904        C905   1.415       .  A
C904        H909   1.083       .  S
C905        C906   1.416       .  A
C906        N907   1.436       .  S
N907        O911   1.263       .  A
N907        O912   1.262       .  A
N910        O913   1.263       .  A
N910        O914   1.263       .  A
C915        C916   1.399       .  A
C915        C920   1.412       .  A
C915        H922   1.083       .  S
C916        C917   1.420       .  A
C917        C918   1.409       .  A
C917        N924   1.445       .  S
C918        C919   1.404       .  A
C918        H923   1.083       .  S
C919        C920   1.423       .  A
C920        N921   1.439       .  S
N921        O925   1.263       .  A
N921        O926   1.263       .  A
N924        O927   1.263       .  A
N924        O928   1.262       .  A
C929        C930   1.398       .  A
C929        C934   1.409       .  A
C929        H936   1.084       .  S
C930        C931   1.422       .  A
C931        C932   1.410       .  A
C931        N938   1.445       .  S
C932        C933   1.401       .  A
C932        H937   1.083       .  S
C933        C934   1.423       .  A
C934        N935   1.440       .  S
N935        O939   1.263       .  A
N935        O940   1.263       .  A
N938        O941   1.263       .  A
N938        O942   1.263       .  A
C943        C944   1.401       .  A
C943        C948   1.399       .  A
C943        H950   1.080       .  S
C944        C945   1.419       .  A
C945        C946   1.421       .  A
C945        N952   1.441       .  S
C946        C947   1.410       .  A
C946        H951   1.084       .  S
C947        C948   1.415       .  A
C948        N949   1.442       .  S
N949        O953   1.262       .  A
N949        O954   1.261       .  A
N952        O955   1.262       .  A
N952        O956   1.263       .  A
C957        C958   1.411       .  A
C957        C962   1.409       .  A
C957        H964   1.084       .  S
C958        C959   1.414       .  A
C959        C960   1.409       .  A
C959        N966   1.436       .  S
C960        C961   1.406       .  A
C960        H965   1.084       .  S
C961        C962   1.412       .  A
C962        N963   1.443       .  S
N963        O967   1.263       .  A
N963        O968   1.262       .  A
N966        O969   1.262       .  A
N966        O970   1.263       .  A
C971        C972   1.410       .  A
C971        C976   1.406       .  A
C971        H978   1.084       .  S
C972        C973   1.417       .  A
C973        C974   1.411       .  A
C973        N980   1.435       .  S
C974        C975   1.407       .  A
C974        H979   1.084       .  S
C975        C976   1.412       .  A
C976        N977   1.442       .  S
N977        O981   1.263       .  A
N977        O982   1.263       .  A
N980        O983   1.262       .  A
N980        O984   1.262       .  A
C985        C986   1.402       .  A
C985        C990   1.414       .  A
C985        H992   1.083       .  S
C986        C987   1.422       .  A
C987        C988   1.402       .  A
C987        N994   1.439       .  S
C988        C989   1.396       .  A
C988        H993   1.084       .  S
C989        C990   1.424       .  A
C990        N991   1.446       .  S
N991        O995   1.263       .  A
N991        O996   1.261       .  A
N994        O997   1.262       .  A
N994        O998   1.263       .  A
C999       C1000   1.409       .  A
C999       C1004   1.409       .  A
C999       H1006   1.082       .  S
C1000      C1001   1.414       .  A
C1001      C1002   1.409       .  A
C1001      N1008   1.436       .  S
C1002      C1003   1.408       .  A
C1002      H1007   1.083       .  S
C1003      C1004   1.412       .  A
C1004      N1005   1.442       .  S
N1005      O1009   1.263       .  A
N1005      O1010   1.263       .  A
N1008      O1011   1.262       .  A
N1008      O1012   1.263       .  A
C1013      C1014   1.407   1_455  A
C1013      C1018   1.404       .  A
C1013      H1020   1.083       .  S
C1014      C2055   1.417       .  A
C1015      C2054   1.417       .  A
C1015      C1016   1.402       .  A
C1015      N1022   1.435       .  S
C1016      C1017   1.406       .  A
C1016      H1021   1.084       .  S
C1017      C2058   1.416       .  A
C1018      C2057   1.416       .  A
C1018      N1019   1.436       .  S
N1019      O1023   1.263       .  A
N1019      O1024   1.263       .  A
N1022      O1025   1.262       .  A
N1022      O1026   1.263       .  A
C1027      C1028   1.400       .  A
C1027      H1034   1.084   1_655  S
C1028      C2069   1.410       .  A
C1029      C2068   1.410       .  A
C1029      N1036   1.442       .  S
C1030      C2071   1.394       .  A
C1030      H1035   1.083       .  S
C1031      C2070   1.394       .  A
C1031      C1032   1.408       .  A
C1032      N1033   1.438   1_655  S
N1033      O1037   1.262       .  A
N1033      O1038   1.262       .  A
N1036      O1039   1.263       .  A
N1036      O1040   1.262       .  A
Zn1041     O1045   1.907       .  S
Zn1041     O1046   1.935       .  S
Zn1041     O1050   2.004       .  S
Zn1042     O1045   1.960       .  S
Zn1042     O1047   1.994       .  S
Zn1042     O1049   1.958       .  S
Zn1043     O1045   1.945       .  S
Zn1043     O1048   2.062       .  S
Zn1043     O1051   2.063       .  S
Zn1043     O1054   2.045       .  S
Zn1044     O1052   2.026       .  S
Zn1044     O1055   2.046       .  S
Zn1044     O1056   2.047       .  S
O1046      C1058   1.267       .  A
O1047      C1059   1.271       .  A
O1048      C1060   1.278       .  A
O1049      C1058   1.265       .  A
O1050      C1060   1.272       .  A
O1051      C1059   1.276       .  A
O1052      C1061   1.283   1_655  A
O1053      C1062   1.271       .  A
O1055      C1062   1.273       .  A
O1056      C1063   1.275       .  A
O1057      C1063   1.270       .  A
C1058      C1288   1.441       .  S
C1059      C1235   1.483       .  S
C1060      C1221   1.481       .  S
C1061      C1277   1.490       .  S
C1062      C1263   1.487       .  S
C1063      C1249   1.478       .  S
Zn1064     O1068   1.909       .  S
Zn1064     O1069   1.950       .  S
Zn1064     O1080   1.996       .  S
Zn1065     O1068   1.929       .  S
Zn1065     O1072   1.928       .  S
Zn1065     O1076   1.994       .  S
Zn1066     O1071   2.065       .  S
Zn1066     O1074   2.060       .  S
Zn1066     O1077   2.040       .  S
Zn1067     O1068   1.941       .  S
Zn1067     O1075   2.035       .  S
Zn1067     O1078   2.065       .  S
Zn1067     O1079   2.047       .  S
O1069      C1081   1.267       .  A
O1070      C1082   1.274       .  A
O1071      C1083   1.279       .  A
O1072      C1081   1.258       .  A
O1073      C1083   1.271       .  A
O1074      C1082   1.274       .  A
O1075      C1084   1.285       .  A
O1076      C1085   1.270       .  A
O1078      C1085   1.277       .  A
O1079      C1086   1.276       .  A
O1080      C1086   1.271       .  A
C1081      C1291   1.435       .  S
C1082      C1204   1.491       .  S
C1083      C1190   1.482       .  S
C1084      C1274   1.491       .  S
C1085      C1176   1.482       .  S
C1086      C1162   1.473       .  S
Zn1087     O1351   1.953   1_554  S
Zn1087     O1612   2.086       .  S
Zn1087     O1096   2.041       .  S
Zn1087     O1103   2.090       .  S
Zn1088     O1611   1.897   1_545  S
Zn1088     O1093   1.969       .  S
Zn1088     O1355   1.976       .  S
Zn1088     O1099   1.945       .  S
Zn1089     O1091   1.954       .  S
Zn1089     O1094   2.033       .  S
Zn1089     O1617   2.085       .  S
Zn1089     O1100   2.089       .  S
Zn1090     O1091   1.929       .  S
Zn1090     O1098   1.973       .  S
Zn1090     O1101   1.964       .  S
Zn1090     O1362   1.952       .  S
O1091     Zn1347   1.953       .  S
O1091     Zn1608   1.897       .  S
O1092     Zn1607   2.086   1_545  S
O1092      C1104   1.280       .  A
O1093      C1105   1.267       .  A
O1094      C1106   1.284       .  A
O1095     Zn1348   1.976   1_554  S
O1095      C1104   1.269       .  A
O1096      C1366   1.285   1_554  A
O1097     Zn1609   2.085   1_545  S
O1097      C1105   1.279       .  A
O1098      C1107   1.265       .  A
O1099      C1628   1.269   1_545  A
O1100      C1107   1.280       .  A
O1101      C1108   1.266       .  A
O1102     Zn1350   1.952   1_554  S
O1102      C1109   1.266       .  A
O1103      C1109   1.280       .  A
C1104      C1218   1.495       .  S
C1105      C1232   1.494       .  S
C1106      O1356   1.285       .  A
C1106      C1134   1.473       .  S
C1107      C1179   1.497       .  S
C1108      O1619   1.269       .  A
C1108      C1148   1.444       .  S
C1109      C1165   1.500       .  S
Zn1110     O1374   1.955       .  S
Zn1110     O1635   2.082       .  S
Zn1110     O1119   2.031       .  S
Zn1110     O1126   2.077       .  S
Zn1111     O1634   1.901   1_545  S
Zn1111     O1116   1.949   1_556  S
Zn1111     O1378   1.973       .  S
Zn1111     O1122   1.925       .  S
Zn1112     O1114   1.960   1_554  S
Zn1112     O1117   2.041       .  S
Zn1112     O1640   2.101       .  S
Zn1112     O1123   2.091       .  S
Zn1113     O1114   1.950       .  S
Zn1113     O1121   1.966   1_556  S
Zn1113     O1124   1.977       .  S
Zn1113     O1385   1.988       .  S
O1114     Zn1370   1.955       .  S
O1114     Zn1631   1.901       .  S
O1115     Zn1630   2.082   1_545  S
O1115      C1127   1.278       .  A
O1116      C1128   1.265       .  A
O1117      C1129   1.283   1_554  A
O1118     Zn1371   1.973       .  S
O1118      C1127   1.266       .  A
O1119      C1389   1.283       .  A
O1120     Zn1632   2.101   1_545  S
O1120      C1128   1.282       .  A
O1121      C1130   1.267       .  A
O1122      C1651   1.265   1_545  A
O1123      C1130   1.282       .  A
O1124      C1131   1.267       .  A
O1125     Zn1373   1.988       .  S
O1125      C1132   1.266       .  A
O1126      C1132   1.278       .  A
C1127      C1260   1.492       .  S
C1128      C1246   1.494       .  S
C1129      O1379   1.283       .  A
C1129      C1137   1.472       .  S
C1130      C1193   1.492       .  S
C1131      O1642   1.265       .  A
C1131      C1411   1.451       .  S
C1132      C1207   1.486       .  S
C1133      C1654   1.402   1_545  A
C1133      C1138   1.403       .  A
C1133      H1140   1.084       .  S
C1134      C1653   1.402       .  A
C1134      C1395   1.416       .  A
C1135      C1394   1.416   1_554  A
C1135      C1136   1.406       .  A
C1135      N1402   1.442       .  S
C1136      C1137   1.402   1_554  A
C1136      H1141   1.084       .  S
C1137      C1918   1.414       .  A
C1138      C1917   1.414   1_545  A
C1138      N1399   1.442       .  S
N1139      C1398   1.442       .  S
N1139      O1403   1.263       .  A
N1139      O1144   1.263       .  A
N1142      C1395   1.442       .  S
N1142      O1145   1.263       .  A
N1142      O1406   1.263       .  A
O1143      N1399   1.263       .  A
O1146      N1402   1.263       .  A
C1147      C1148   1.401       .  A
C1147      H1154   1.085       .  S
C1148      C1929   1.410       .  A
C1149      C1928   1.410       .  A
C1149      N1156   1.445   1_565  S
C1150      C1931   1.402       .  A
C1150      H1155   1.084   1_565  S
C1151      C1391   1.451       .  S
C1151      C1930   1.402       .  A
C1151      C1152   1.410       .  A
C1152      N1153   1.437       .  S
N1153      O1157   1.262       .  A
N1153      O1418   1.263       .  A
N1156      O1419   1.263       .  A
N1156      O1160   1.263       .  A
O1158      N1413   1.263       .  A
O1159      N1416   1.263       .  A
C1161      C1162   1.405       .  A
C1161      C1166   1.409       .  A
C1161      H1168   1.084       .  S
C1162      C1163   1.408       .  A
C1163      C1164   1.404       .  A
C1163      N1170   1.443       .  S
C1164      C1165   1.415       .  A
C1164      H1169   1.083       .  S
C1165      C1166   1.416       .  A
C1166      N1167   1.436       .  S
N1167      O1171   1.263       .  A
N1167      O1172   1.262       .  A
N1170      O1173   1.263       .  A
N1170      O1174   1.263       .  A
C1175      C1176   1.399       .  A
C1175      C1180   1.412       .  A
C1175      H1182   1.083       .  S
C1176      C1177   1.420       .  A
C1177      C1178   1.409       .  A
C1177      N1184   1.445       .  S
C1178      C1179   1.404       .  A
C1178      H1183   1.083       .  S
C1179      C1180   1.423       .  A
C1180      N1181   1.439       .  S
N1181      O1185   1.263       .  A
N1181      O1186   1.263       .  A
N1184      O1187   1.263       .  A
N1184      O1188   1.262       .  A
C1189      C1190   1.398       .  A
C1189      C1194   1.409       .  A
C1189      H1196   1.084       .  S
C1190      C1191   1.422       .  A
C1191      C1192   1.410       .  A
C1191      N1198   1.445       .  S
C1192      C1193   1.401       .  A
C1192      H1197   1.083       .  S
C1193      C1194   1.423       .  A
C1194      N1195   1.440       .  S
N1195      O1199   1.263       .  A
N1195      O1200   1.263       .  A
N1198      O1201   1.263       .  A
N1198      O1202   1.263       .  A
C1203      C1204   1.401       .  A
C1203      C1208   1.399       .  A
C1203      H1210   1.080       .  S
C1204      C1205   1.419       .  A
C1205      C1206   1.421       .  A
C1205      N1212   1.441       .  S
C1206      C1207   1.410       .  A
C1206      H1211   1.084       .  S
C1207      C1208   1.415       .  A
C1208      N1209   1.442       .  S
N1209      O1213   1.262       .  A
N1209      O1214   1.261       .  A
N1212      O1215   1.262       .  A
N1212      O1216   1.263       .  A
C1217      C1218   1.411       .  A
C1217      C1222   1.409       .  A
C1217      H1224   1.084       .  S
C1218      C1219   1.414       .  A
C1219      C1220   1.409       .  A
C1219      N1226   1.436       .  S
C1220      C1221   1.406       .  A
C1220      H1225   1.084       .  S
C1221      C1222   1.412       .  A
C1222      N1223   1.443       .  S
N1223      O1227   1.263       .  A
N1223      O1228   1.262       .  A
N1226      O1229   1.262       .  A
N1226      O1230   1.263       .  A
C1231      C1232   1.410       .  A
C1231      C1236   1.406       .  A
C1231      H1238   1.084       .  S
C1232      C1233   1.417       .  A
C1233      C1234   1.411       .  A
C1233      N1240   1.435       .  S
C1234      C1235   1.407       .  A
C1234      H1239   1.084       .  S
C1235      C1236   1.412       .  A
C1236      N1237   1.442       .  S
N1237      O1241   1.263       .  A
N1237      O1242   1.263       .  A
N1240      O1243   1.262       .  A
N1240      O1244   1.262       .  A
C1245      C1246   1.402       .  A
C1245      C1250   1.414       .  A
C1245      H1252   1.083       .  S
C1246      C1247   1.422       .  A
C1247      C1248   1.402       .  A
C1247      N1254   1.439       .  S
C1248      C1249   1.396       .  A
C1248      H1253   1.084       .  S
C1249      C1250   1.424       .  A
C1250      N1251   1.446       .  S
N1251      O1255   1.263       .  A
N1251      O1256   1.261       .  A
N1254      O1257   1.262       .  A
N1254      O1258   1.263       .  A
C1259      C1260   1.409       .  A
C1259      C1264   1.409       .  A
C1259      H1266   1.082       .  S
C1260      C1261   1.414       .  A
C1261      C1262   1.409       .  A
C1261      N1268   1.436       .  S
C1262      C1263   1.408       .  A
C1262      H1267   1.083       .  S
C1263      C1264   1.412       .  A
C1264      N1265   1.442       .  S
N1265      O1269   1.263       .  A
N1265      O1270   1.263       .  A
N1268      O1271   1.262       .  A
N1268      O1272   1.263       .  A
C1273      C1274   1.407       .  A
C1273      C1278   1.404       .  A
C1273      H1280   1.083       .  S
C1275      C1276   1.402       .  A
C1275      N1282   1.435       .  S
C1276      C1277   1.406   1_655  A
C1276      H1281   1.084       .  S
C1278      N1279   1.436       .  S
N1279      O1283   1.263       .  A
N1279      O1284   1.263       .  A
N1282      O1285   1.262       .  A
N1282      O1286   1.263       .  A
C1287      C1288   1.400       .  A
C1287      C1812   1.393   1_545  A
C1287      H1294   1.084       .  S
C1289      C1810   1.384   1_545  A
C1289      N1296   1.442       .  S
C1290      C1809   1.384       .  A
C1290      H1295   1.083       .  S
C1291      C1292   1.408       .  A
C1292      C1807   1.393       .  A
C1292      N1293   1.438       .  S
N1293      O1297   1.262       .  A
N1293      O1298   1.262       .  A
N1296      O1299   1.263       .  A
N1296      O1300   1.262       .  A
Zn1301     O1305   1.907       .  S
Zn1301     O1306   1.935       .  S
Zn1301     O1310   2.004       .  S
Zn1302     O1305   1.960       .  S
Zn1302     O1307   1.994       .  S
Zn1302     O1309   1.958       .  S
Zn1303     O1305   1.945       .  S
Zn1303     O1308   2.062       .  S
Zn1303     O1311   2.063       .  S
Zn1303     O1314   2.045       .  S
Zn1304     O1312   2.026       .  S
Zn1304     O1315   2.046       .  S
Zn1304     O1316   2.047       .  S
O1306      C1318   1.267       .  A
O1307      C1319   1.271       .  A
O1308      C1320   1.278       .  A
O1309      C1318   1.265       .  A
O1310      C1320   1.272       .  A
O1311      C1319   1.276       .  A
O1312      C1321   1.283   1_655  A
O1313      C1322   1.271       .  A
O1315      C1322   1.273       .  A
O1316      C1323   1.275       .  A
O1317      C1323   1.270       .  A
C1318      C1548   1.441       .  S
C1319      C1495   1.483       .  S
C1320      C1481   1.481       .  S
C1321      C1537   1.490       .  S
C1322      C1523   1.487       .  S
C1323      C1509   1.478       .  S
Zn1324     O1328   1.909       .  S
Zn1324     O1329   1.950       .  S
Zn1324     O1340   1.996       .  S
Zn1325     O1328   1.929       .  S
Zn1325     O1332   1.928       .  S
Zn1325     O1336   1.994       .  S
Zn1326     O1331   2.065       .  S
Zn1326     O1334   2.060       .  S
Zn1326     O1337   2.040       .  S
Zn1327     O1328   1.941       .  S
Zn1327     O1335   2.035       .  S
Zn1327     O1338   2.065       .  S
Zn1327     O1339   2.047       .  S
O1329      C1341   1.267       .  A
O1330      C1342   1.274       .  A
O1331      C1343   1.279       .  A
O1332      C1341   1.258       .  A
O1333      C1343   1.271       .  A
O1334      C1342   1.274       .  A
O1335      C1344   1.285       .  A
O1336      C1345   1.270       .  A
O1338      C1345   1.277       .  A
O1339      C1346   1.276       .  A
O1340      C1346   1.271       .  A
C1341      C1551   1.435       .  S
C1342      C1464   1.491       .  S
C1343      C1450   1.482       .  S
C1344      C1534   1.491       .  S
C1345      C1436   1.482       .  S
C1346      C1422   1.473       .  S
Zn1347     O1872   2.086       .  S
Zn1347     O1356   2.041       .  S
Zn1347     O1363   2.090       .  S
Zn1348     O1871   1.897   1_545  S
Zn1348     O1353   1.969       .  S
Zn1348     O1359   1.945       .  S
Zn1349     O1351   1.954       .  S
Zn1349     O1354   2.033       .  S
Zn1349     O1877   2.085       .  S
Zn1349     O1360   2.089       .  S
Zn1350     O1351   1.929       .  S
Zn1350     O1358   1.973       .  S
Zn1350     O1361   1.964       .  S
O1351     Zn1868   1.897       .  S
O1352     Zn1867   2.086   1_545  S
O1352      C1364   1.280       .  A
O1353      C1365   1.267       .  A
O1354      C1366   1.284       .  A
O1355      C1364   1.269       .  A
O1357     Zn1869   2.085   1_545  S
O1357      C1365   1.279       .  A
O1358      C1367   1.265       .  A
O1359      C1888   1.269   1_545  A
O1360      C1367   1.280       .  A
O1361      C1368   1.266       .  A
O1362      C1369   1.266       .  A
O1363      C1369   1.280       .  A
C1364      C1478   1.495       .  S
C1365      C1492   1.495       .  S
C1366      C1394   1.473       .  S
C1367      C1439   1.497       .  S
C1368      O1879   1.269       .  A
C1368      C1408   1.444       .  S
C1369      C1425   1.500       .  S
Zn1370     O1895   2.082       .  S
Zn1370     O1379   2.031       .  S
Zn1370     O1386   2.077       .  S
Zn1371     O1894   1.901   1_545  S
Zn1371     O1376   1.949       .  S
Zn1371     O1382   1.925       .  S
Zn1372     O1374   1.960       .  S
Zn1372     O1377   2.041       .  S
Zn1372     O1900   2.101       .  S
Zn1372     O1383   2.091       .  S
Zn1373     O1374   1.950       .  S
Zn1373     O1381   1.966       .  S
Zn1373     O1384   1.978       .  S
O1374     Zn1891   1.901       .  S
O1375     Zn1890   2.082   1_545  S
O1375      C1387   1.278       .  A
O1376      C1388   1.265       .  A
O1377      C1389   1.283       .  A
O1378      C1387   1.266       .  A
O1380     Zn1892   2.101   1_545  S
O1380      C1388   1.282       .  A
O1381      C1390   1.267       .  A
O1382      C1911   1.265   1_545  A
O1383      C1390   1.282       .  A
O1384      C1391   1.267       .  A
O1385      C1392   1.266       .  A
O1386      C1392   1.278       .  A
C1387      C1520   1.492       .  S
C1388      C1506   1.494       .  S
C1389      C1397   1.472       .  S
C1390      C1453   1.492       .  S
C1391      O1902   1.265       .  A
C1392      C1467   1.486       .  S
C1393      C1914   1.402   1_545  A
C1393      C1398   1.403       .  A
C1393      H1400   1.084       .  S
C1394      C1913   1.402       .  A
C1395      C1396   1.406       .  A
C1396      C1397   1.402       .  A
C1396      H1401   1.084       .  S
C1397      C1658   1.414       .  A
C1398      C1657   1.414   1_545  A
N1399      O1404   1.263       .  A
N1402      O1405   1.263       .  A
C1407      C1408   1.401       .  A
C1407      H1414   1.085       .  S
C1408      C1669   1.410       .  A
C1409      C1668   1.410       .  A
C1409      N1416   1.445   1_565  S
C1410      C1671   1.402       .  A
C1410      H1415   1.084   1_565  S
C1411      C1670   1.402       .  A
C1411      C1412   1.410       .  A
C1412      N1413   1.437   1_556  S
N1413      O1417   1.262   1_554  A
N1416      O1420   1.263       .  A
C1421      C1422   1.405       .  A
C1421      C1426   1.409       .  A
C1421      H1428   1.084       .  S
C1422      C1423   1.408       .  A
C1423      C1424   1.404       .  A
C1423      N1430   1.443       .  S
C1424      C1425   1.415       .  A
C1424      H1429   1.083       .  S
C1425      C1426   1.416       .  A
C1426      N1427   1.436       .  S
N1427      O1431   1.263       .  A
N1427      O1432   1.262       .  A
N1430      O1433   1.263       .  A
N1430      O1434   1.263       .  A
C1435      C1436   1.399       .  A
C1435      C1440   1.412       .  A
C1435      H1442   1.083       .  S
C1436      C1437   1.420       .  A
C1437      C1438   1.409       .  A
C1437      N1444   1.445       .  S
C1438      C1439   1.404       .  A
C1438      H1443   1.083       .  S
C1439      C1440   1.423       .  A
C1440      N1441   1.439       .  S
N1441      O1445   1.263       .  A
N1441      O1446   1.263       .  A
N1444      O1447   1.263       .  A
N1444      O1448   1.262       .  A
C1449      C1450   1.398       .  A
C1449      C1454   1.409       .  A
C1449      H1456   1.084       .  S
C1450      C1451   1.422       .  A
C1451      C1452   1.410       .  A
C1451      N1458   1.445       .  S
C1452      C1453   1.401       .  A
C1452      H1457   1.083       .  S
C1453      C1454   1.423       .  A
C1454      N1455   1.440       .  S
N1455      O1459   1.263       .  A
N1455      O1460   1.263       .  A
N1458      O1461   1.263       .  A
N1458      O1462   1.263       .  A
C1463      C1464   1.401       .  A
C1463      C1468   1.399       .  A
C1463      H1470   1.080       .  S
C1464      C1465   1.419       .  A
C1465      C1466   1.421       .  A
C1465      N1472   1.441       .  S
C1466      C1467   1.410       .  A
C1466      H1471   1.084       .  S
C1467      C1468   1.415       .  A
C1468      N1469   1.442       .  S
N1469      O1473   1.262       .  A
N1469      O1474   1.261       .  A
N1472      O1475   1.262       .  A
N1472      O1476   1.263       .  A
C1477      C1478   1.411       .  A
C1477      C1482   1.409       .  A
C1477      H1484   1.084       .  S
C1478      C1479   1.414       .  A
C1479      C1480   1.409       .  A
C1479      N1486   1.436       .  S
C1480      C1481   1.406       .  A
C1480      H1485   1.084       .  S
C1481      C1482   1.412       .  A
C1482      N1483   1.443       .  S
N1483      O1487   1.263       .  A
N1483      O1488   1.262       .  A
N1486      O1489   1.262       .  A
N1486      O1490   1.263       .  A
C1491      C1492   1.410       .  A
C1491      C1496   1.406       .  A
C1491      H1498   1.084       .  S
C1492      C1493   1.417       .  A
C1493      C1494   1.411       .  A
C1493      N1500   1.435       .  S
C1494      C1495   1.407       .  A
C1494      H1499   1.084       .  S
C1495      C1496   1.412       .  A
C1496      N1497   1.442       .  S
N1497      O1501   1.263       .  A
N1497      O1502   1.263       .  A
N1500      O1503   1.262       .  A
N1500      O1504   1.262       .  A
C1505      C1506   1.402       .  A
C1505      C1510   1.414       .  A
C1505      H1512   1.083       .  S
C1506      C1507   1.422       .  A
C1507      C1508   1.402       .  A
C1507      N1514   1.439       .  S
C1508      C1509   1.396       .  A
C1508      H1513   1.084       .  S
C1509      C1510   1.424       .  A
C1510      N1511   1.446       .  S
N1511      O1515   1.263       .  A
N1511      O1516   1.261       .  A
N1514      O1517   1.262       .  A
N1514      O1518   1.263       .  A
C1519      C1520   1.409       .  A
C1519      C1524   1.409       .  A
C1519      H1526   1.082       .  S
C1520      C1521   1.414       .  A
C1521      C1522   1.409       .  A
C1521      N1528   1.436       .  S
C1522      C1523   1.408       .  A
C1522      H1527   1.083       .  S
C1523      C1524   1.412       .  A
C1524      N1525   1.442       .  S
N1525      O1529   1.263       .  A
N1525      O1530   1.263       .  A
N1528      O1531   1.262       .  A
N1528      O1532   1.263       .  A
C1533      C1534   1.407       .  A
C1533      C1538   1.404       .  A
C1533      H1540   1.083       .  S
C1535      C1536   1.402       .  A
C1535      N1542   1.435       .  S
C1536      C1537   1.406   1_655  A
C1536      H1541   1.084       .  S
C1538      N1539   1.436       .  S
N1539      O1543   1.263       .  A
N1539      O1544   1.263       .  A
N1542      O1545   1.262       .  A
N1542      O1546   1.263       .  A
C1547      C1548   1.400       .  A
C1547      C2072   1.393   1_545  A
C1547      H1554   1.084       .  S
C1549      C2070   1.384   1_545  A
C1549      N1556   1.442       .  S
C1550      C2069   1.384       .  A
C1550      H1555   1.083       .  S
C1551      C1552   1.408       .  A
C1552      C2067   1.393       .  A
C1552      N1553   1.438       .  S
N1553      O1557   1.262       .  A
N1553      O1558   1.262       .  A
N1556      O1559   1.263       .  A
N1556      O1560   1.262       .  A
Zn1561     O1565   1.907       .  S
Zn1561     O1566   1.935       .  S
Zn1561     O1570   2.004       .  S
Zn1562     O1565   1.960       .  S
Zn1562     O1567   1.994       .  S
Zn1562     O1569   1.958       .  S
Zn1563     O1565   1.945       .  S
Zn1563     O1568   2.062       .  S
Zn1563     O1571   2.063       .  S
Zn1563     O1574   2.045       .  S
Zn1564     O1572   2.026       .  S
Zn1564     O1575   2.046       .  S
Zn1564     O1576   2.047       .  S
O1566      C1578   1.267       .  A
O1567      C1579   1.271       .  A
O1568      C1580   1.278       .  A
O1569      C1578   1.265       .  A
O1570      C1580   1.272       .  A
O1571      C1579   1.276       .  A
O1572      C1581   1.283   1_655  A
O1573      C1582   1.271       .  A
O1575      C1582   1.273       .  A
O1576      C1583   1.275       .  A
O1577      C1583   1.270       .  A
C1578      C1808   1.441       .  S
C1579      C1755   1.483       .  S
C1580      C1741   1.481       .  S
C1581      C1797   1.490       .  S
C1582      C1783   1.487       .  S
C1583      C1769   1.478       .  S
Zn1584     O1588   1.909       .  S
Zn1584     O1589   1.950       .  S
Zn1584     O1600   1.996       .  S
Zn1585     O1588   1.929       .  S
Zn1585     O1592   1.928       .  S
Zn1585     O1596   1.994       .  S
Zn1586     O1591   2.065       .  S
Zn1586     O1594   2.060       .  S
Zn1586     O1597   2.040       .  S
Zn1587     O1588   1.941       .  S
Zn1587     O1595   2.035       .  S
Zn1587     O1598   2.065       .  S
Zn1587     O1599   2.047       .  S
O1589      C1601   1.267       .  A
O1590      C1602   1.274       .  A
O1591      C1603   1.279       .  A
O1592      C1601   1.258       .  A
O1593      C1603   1.271       .  A
O1594      C1602   1.274       .  A
O1595      C1604   1.285       .  A
O1596      C1605   1.270       .  A
O1598      C1605   1.277       .  A
O1599      C1606   1.276       .  A
O1600      C1606   1.271       .  A
C1601      C1811   1.435       .  S
C1602      C1724   1.491       .  S
C1603      C1710   1.482       .  S
C1604      C1794   1.491       .  S
C1605      C1696   1.482       .  S
C1606      C1682   1.473       .  S
Zn1607     O1871   1.953   1_554  S
Zn1607     O1616   2.041       .  S
Zn1607     O1623   2.090       .  S
Zn1608     O1613   1.969       .  S
Zn1608     O1875   1.976       .  S
Zn1608     O1619   1.945       .  S
Zn1609     O1611   1.954       .  S
Zn1609     O1614   2.033       .  S
Zn1609     O1620   2.089       .  S
Zn1610     O1611   1.929       .  S
Zn1610     O1618   1.973       .  S
Zn1610     O1621   1.964       .  S
Zn1610     O1882   1.952       .  S
O1611     Zn1867   1.953       .  S
O1612      C1624   1.280       .  A
O1613      C1625   1.267       .  A
O1614      C1626   1.284       .  A
O1615     Zn1868   1.976   1_554  S
O1615      C1624   1.269       .  A
O1616      C1886   1.285   1_554  A
O1617      C1625   1.279       .  A
O1618      C1627   1.265       .  A
O1620      C1627   1.280       .  A
O1621      C1628   1.266       .  A
O1622     Zn1870   1.952   1_554  S
O1622      C1629   1.266       .  A
O1623      C1629   1.280       .  A
C1624      C1738   1.495       .  S
C1625      C1752   1.494       .  S
C1626      O1876   1.285       .  A
C1626      C1654   1.473       .  S
C1627      C1699   1.497       .  S
C1628      C1668   1.444       .  S
C1629      C1685   1.500       .  S
Zn1630     O1894   1.955       .  S
Zn1630     O1639   2.031       .  S
Zn1630     O1646   2.077       .  S
Zn1631     O1636   1.949   1_556  S
Zn1631     O1898   1.973       .  S
Zn1631     O1642   1.925       .  S
Zn1632     O1634   1.960   1_554  S
Zn1632     O1637   2.041       .  S
Zn1632     O1643   2.091       .  S
Zn1633     O1634   1.950       .  S
Zn1633     O1641   1.966   1_556  S
Zn1633     O1644   1.977       .  S
Zn1633     O1905   1.988       .  S
O1634     Zn1890   1.955       .  S
O1635      C1647   1.278       .  A
O1636      C1648   1.265       .  A
O1637      C1649   1.283   1_554  A
O1638     Zn1891   1.973       .  S
O1638      C1647   1.266       .  A
O1639      C1909   1.283       .  A
O1640      C1648   1.282       .  A
O1641      C1650   1.267       .  A
O1643      C1650   1.282       .  A
O1644      C1651   1.267       .  A
O1645     Zn1893   1.988       .  S
O1645      C1652   1.266       .  A
O1646      C1652   1.278       .  A
C1647      C1780   1.492       .  S
C1648      C1766   1.494       .  S
C1649      O1899   1.283       .  A
C1649      C1657   1.472       .  S
C1650      C1713   1.492       .  S
C1651      C1931   1.451       .  S
C1652      C1727   1.486       .  S
C1653      C1658   1.403       .  A
C1653      H1660   1.084       .  S
C1654      C1915   1.416       .  A
C1655      C1914   1.416   1_554  A
C1655      C1656   1.406       .  A
C1655      N1922   1.442       .  S
C1656      C1657   1.402   1_554  A
C1656      H1661   1.084       .  S
C1658      N1919   1.442       .  S
N1659      C1918   1.442       .  S
N1659      O1923   1.263       .  A
N1659      O1664   1.263       .  A
N1662      C1915   1.442       .  S
N1662      O1665   1.263       .  A
N1662      O1926   1.263       .  A
O1663      N1919   1.263       .  A
O1666      N1922   1.263       .  A
C1667      C1668   1.401       .  A
C1667      H1674   1.085       .  S
C1669      N1676   1.445       .  S
C1670      H1675   1.084       .  S
C1671      C1911   1.451       .  S
C1671      C1672   1.410       .  A
C1672      N1673   1.437       .  S
N1673      O1677   1.262       .  A
N1673      O1938   1.263       .  A
N1676      O1939   1.263       .  A
N1676      O1680   1.263       .  A
O1678      N1933   1.263       .  A
O1679      N1936   1.263       .  A
C1681      C1682   1.405       .  A
C1681      C1686   1.409       .  A
C1681      H1688   1.084       .  S
C1682      C1683   1.408       .  A
C1683      C1684   1.404       .  A
C1683      N1690   1.443       .  S
C1684      C1685   1.415       .  A
C1684      H1689   1.083       .  S
C1685      C1686   1.416       .  A
C1686      N1687   1.436       .  S
N1687      O1691   1.263       .  A
N1687      O1692   1.262       .  A
N1690      O1693   1.263       .  A
N1690      O1694   1.263       .  A
C1695      C1696   1.399       .  A
C1695      C1700   1.412       .  A
C1695      H1702   1.083       .  S
C1696      C1697   1.420       .  A
C1697      C1698   1.409       .  A
C1697      N1704   1.445       .  S
C1698      C1699   1.404       .  A
C1698      H1703   1.083       .  S
C1699      C1700   1.423       .  A
C1700      N1701   1.439       .  S
N1701      O1705   1.263       .  A
N1701      O1706   1.263       .  A
N1704      O1707   1.263       .  A
N1704      O1708   1.262       .  A
C1709      C1710   1.398       .  A
C1709      C1714   1.409       .  A
C1709      H1716   1.084       .  S
C1710      C1711   1.422       .  A
C1711      C1712   1.410       .  A
C1711      N1718   1.445       .  S
C1712      C1713   1.401       .  A
C1712      H1717   1.083       .  S
C1713      C1714   1.423       .  A
C1714      N1715   1.440       .  S
N1715      O1719   1.263       .  A
N1715      O1720   1.263       .  A
N1718      O1721   1.263       .  A
N1718      O1722   1.263       .  A
C1723      C1724   1.401       .  A
C1723      C1728   1.399       .  A
C1723      H1730   1.080       .  S
C1724      C1725   1.419       .  A
C1725      C1726   1.421       .  A
C1725      N1732   1.441       .  S
C1726      C1727   1.410       .  A
C1726      H1731   1.084       .  S
C1727      C1728   1.415       .  A
C1728      N1729   1.442       .  S
N1729      O1733   1.262       .  A
N1729      O1734   1.261       .  A
N1732      O1735   1.262       .  A
N1732      O1736   1.263       .  A
C1737      C1738   1.411       .  A
C1737      C1742   1.409       .  A
C1737      H1744   1.084       .  S
C1738      C1739   1.414       .  A
C1739      C1740   1.409       .  A
C1739      N1746   1.436       .  S
C1740      C1741   1.406       .  A
C1740      H1745   1.084       .  S
C1741      C1742   1.412       .  A
C1742      N1743   1.443       .  S
N1743      O1747   1.263       .  A
N1743      O1748   1.262       .  A
N1746      O1749   1.262       .  A
N1746      O1750   1.263       .  A
C1751      C1752   1.410       .  A
C1751      C1756   1.406       .  A
C1751      H1758   1.084       .  S
C1752      C1753   1.417       .  A
C1753      C1754   1.411       .  A
C1753      N1760   1.435       .  S
C1754      C1755   1.407       .  A
C1754      H1759   1.084       .  S
C1755      C1756   1.412       .  A
C1756      N1757   1.442       .  S
N1757      O1761   1.263       .  A
N1757      O1762   1.263       .  A
N1760      O1763   1.262       .  A
N1760      O1764   1.262       .  A
C1765      C1766   1.402       .  A
C1765      C1770   1.414       .  A
C1765      H1772   1.083       .  S
C1766      C1767   1.422       .  A
C1767      C1768   1.402       .  A
C1767      N1774   1.439       .  S
C1768      C1769   1.396       .  A
C1768      H1773   1.084       .  S
C1769      C1770   1.424       .  A
C1770      N1771   1.446       .  S
N1771      O1775   1.263       .  A
N1771      O1776   1.261       .  A
N1774      O1777   1.262       .  A
N1774      O1778   1.263       .  A
C1779      C1780   1.409       .  A
C1779      C1784   1.409       .  A
C1779      H1786   1.082       .  S
C1780      C1781   1.414       .  A
C1781      C1782   1.409       .  A
C1781      N1788   1.436       .  S
C1782      C1783   1.408       .  A
C1782      H1787   1.083       .  S
C1783      C1784   1.412       .  A
C1784      N1785   1.442       .  S
N1785      O1789   1.263       .  A
N1785      O1790   1.263       .  A
N1788      O1791   1.262       .  A
N1788      O1792   1.263       .  A
C1793      C1794   1.407       .  A
C1793      C1798   1.404       .  A
C1793      H1800   1.083       .  S
C1795      C1796   1.402       .  A
C1795      N1802   1.435       .  S
C1796      C1797   1.406   1_655  A
C1796      H1801   1.084       .  S
C1798      N1799   1.436       .  S
N1799      O1803   1.263       .  A
N1799      O1804   1.263       .  A
N1802      O1805   1.262       .  A
N1802      O1806   1.263       .  A
C1807      C1808   1.400       .  A
C1807      H1814   1.084       .  S
C1809      N1816   1.442       .  S
C1810      H1815   1.083       .  S
C1811      C1812   1.408       .  A
C1812      N1813   1.438       .  S
N1813      O1817   1.262       .  A
N1813      O1818   1.262       .  A
N1816      O1819   1.263       .  A
N1816      O1820   1.262       .  A
Zn1821     O1825   1.907       .  S
Zn1821     O1826   1.935       .  S
Zn1821     O1830   2.004       .  S
Zn1822     O1825   1.960       .  S
Zn1822     O1827   1.994       .  S
Zn1822     O1829   1.958       .  S
Zn1823     O1825   1.945       .  S
Zn1823     O1828   2.062       .  S
Zn1823     O1831   2.063       .  S
Zn1823     O1834   2.045       .  S
Zn1824     O1832   2.026       .  S
Zn1824     O1835   2.046       .  S
Zn1824     O1836   2.047       .  S
O1826      C1838   1.267       .  A
O1827      C1839   1.271       .  A
O1828      C1840   1.278       .  A
O1829      C1838   1.265       .  A
O1830      C1840   1.272       .  A
O1831      C1839   1.276       .  A
O1832      C1841   1.283   1_655  A
O1833      C1842   1.271       .  A
O1835      C1842   1.273       .  A
O1836      C1843   1.275       .  A
O1837      C1843   1.270       .  A
C1838      C2068   1.441       .  S
C1839      C2015   1.483       .  S
C1840      C2001   1.481       .  S
C1841      C2057   1.490       .  S
C1842      C2043   1.487       .  S
C1843      C2029   1.478       .  S
Zn1844     O1848   1.909       .  S
Zn1844     O1849   1.950       .  S
Zn1844     O1860   1.996       .  S
Zn1845     O1848   1.929       .  S
Zn1845     O1852   1.928       .  S
Zn1845     O1856   1.994       .  S
Zn1846     O1851   2.065       .  S
Zn1846     O1854   2.060       .  S
Zn1846     O1857   2.040       .  S
Zn1847     O1848   1.941       .  S
Zn1847     O1855   2.035       .  S
Zn1847     O1858   2.065       .  S
Zn1847     O1859   2.047       .  S
O1849      C1861   1.267       .  A
O1850      C1862   1.274       .  A
O1851      C1863   1.279       .  A
O1852      C1861   1.258       .  A
O1853      C1863   1.271       .  A
O1854      C1862   1.274       .  A
O1855      C1864   1.285       .  A
O1856      C1865   1.270       .  A
O1858      C1865   1.277       .  A
O1859      C1866   1.276       .  A
O1860      C1866   1.271       .  A
C1861      C2071   1.435       .  S
C1862      C1984   1.491       .  S
C1863      C1970   1.482       .  S
C1864      C2054   1.491       .  S
C1865      C1956   1.482       .  S
C1866      C1942   1.473       .  S
Zn1867     O1876   2.041       .  S
Zn1867     O1883   2.090       .  S
Zn1868     O1873   1.969       .  S
Zn1868     O1879   1.945       .  S
Zn1869     O1871   1.954       .  S
Zn1869     O1874   2.033       .  S
Zn1869     O1880   2.089       .  S
Zn1870     O1871   1.929       .  S
Zn1870     O1878   1.973       .  S
Zn1870     O1881   1.964       .  S
O1872      C1884   1.280       .  A
O1873      C1885   1.267       .  A
O1874      C1886   1.284       .  A
O1875      C1884   1.269       .  A
O1877      C1885   1.279       .  A
O1878      C1887   1.265       .  A
O1880      C1887   1.280       .  A
O1881      C1888   1.266       .  A
O1882      C1889   1.266       .  A
O1883      C1889   1.280       .  A
C1884      C1998   1.495       .  S
C1885      C2012   1.495       .  S
C1886      C1914   1.473       .  S
C1887      C1959   1.497       .  S
C1888      C1928   1.444       .  S
C1889      C1945   1.500       .  S
Zn1890     O1899   2.031       .  S
Zn1890     O1906   2.077       .  S
Zn1891     O1896   1.949       .  S
Zn1891     O1902   1.925       .  S
Zn1892     O1894   1.960       .  S
Zn1892     O1897   2.041       .  S
Zn1892     O1903   2.091       .  S
Zn1893     O1894   1.950       .  S
Zn1893     O1901   1.966       .  S
Zn1893     O1904   1.978       .  S
O1895      C1907   1.278       .  A
O1896      C1908   1.265       .  A
O1897      C1909   1.283       .  A
O1898      C1907   1.266       .  A
O1900      C1908   1.282       .  A
O1901      C1910   1.267       .  A
O1903      C1910   1.282       .  A
O1904      C1911   1.267       .  A
O1905      C1912   1.266       .  A
O1906      C1912   1.278       .  A
C1907      C2040   1.492       .  S
C1908      C2026   1.494       .  S
C1909      C1917   1.472       .  S
C1910      C1973   1.492       .  S
C1912      C1987   1.486       .  S
C1913      C1918   1.403       .  A
C1913      H1920   1.084       .  S
C1915      C1916   1.406       .  A
C1916      C1917   1.402       .  A
C1916      H1921   1.084       .  S
N1919      O1924   1.263       .  A
N1922      O1925   1.263       .  A
C1927      C1928   1.401       .  A
C1927      H1934   1.085       .  S
C1929      N1936   1.445       .  S
C1930      H1935   1.084       .  S
C1931      C1932   1.410       .  A
C1932      N1933   1.437   1_556  S
N1933      O1937   1.262   1_554  A
N1936      O1940   1.263       .  A
C1941      C1942   1.405       .  A
C1941      C1946   1.409       .  A
C1941      H1948   1.084       .  S
C1942      C1943   1.408       .  A
C1943      C1944   1.404       .  A
C1943      N1950   1.443       .  S
C1944      C1945   1.415       .  A
C1944      H1949   1.083       .  S
C1945      C1946   1.416       .  A
C1946      N1947   1.436       .  S
N1947      O1951   1.263       .  A
N1947      O1952   1.262       .  A
N1950      O1953   1.263       .  A
N1950      O1954   1.263       .  A
C1955      C1956   1.399       .  A
C1955      C1960   1.412       .  A
C1955      H1962   1.083       .  S
C1956      C1957   1.420       .  A
C1957      C1958   1.409       .  A
C1957      N1964   1.445       .  S
C1958      C1959   1.404       .  A
C1958      H1963   1.083       .  S
C1959      C1960   1.423       .  A
C1960      N1961   1.439       .  S
N1961      O1965   1.263       .  A
N1961      O1966   1.263       .  A
N1964      O1967   1.263       .  A
N1964      O1968   1.262       .  A
C1969      C1970   1.398       .  A
C1969      C1974   1.409       .  A
C1969      H1976   1.084       .  S
C1970      C1971   1.422       .  A
C1971      C1972   1.410       .  A
C1971      N1978   1.445       .  S
C1972      C1973   1.401       .  A
C1972      H1977   1.083       .  S
C1973      C1974   1.423       .  A
C1974      N1975   1.440       .  S
N1975      O1979   1.263       .  A
N1975      O1980   1.263       .  A
N1978      O1981   1.263       .  A
N1978      O1982   1.263       .  A
C1983      C1984   1.401       .  A
C1983      C1988   1.399       .  A
C1983      H1990   1.080       .  S
C1984      C1985   1.419       .  A
C1985      C1986   1.421       .  A
C1985      N1992   1.441       .  S
C1986      C1987   1.410       .  A
C1986      H1991   1.084       .  S
C1987      C1988   1.415       .  A
C1988      N1989   1.442       .  S
N1989      O1993   1.262       .  A
N1989      O1994   1.261       .  A
N1992      O1995   1.262       .  A
N1992      O1996   1.263       .  A
C1997      C1998   1.411       .  A
C1997      C2002   1.409       .  A
C1997      H2004   1.084       .  S
C1998      C1999   1.414       .  A
C1999      C2000   1.409       .  A
C1999      N2006   1.436       .  S
C2000      C2001   1.406       .  A
C2000      H2005   1.084       .  S
C2001      C2002   1.412       .  A
C2002      N2003   1.443       .  S
N2003      O2007   1.263       .  A
N2003      O2008   1.262       .  A
N2006      O2009   1.262       .  A
N2006      O2010   1.263       .  A
C2011      C2012   1.410       .  A
C2011      C2016   1.406       .  A
C2011      H2018   1.084       .  S
C2012      C2013   1.417       .  A
C2013      C2014   1.411       .  A
C2013      N2020   1.435       .  S
C2014      C2015   1.407       .  A
C2014      H2019   1.084       .  S
C2015      C2016   1.412       .  A
C2016      N2017   1.442       .  S
N2017      O2021   1.263       .  A
N2017      O2022   1.263       .  A
N2020      O2023   1.262       .  A
N2020      O2024   1.262       .  A
C2025      C2026   1.402       .  A
C2025      C2030   1.414       .  A
C2025      H2032   1.083       .  S
C2026      C2027   1.422       .  A
C2027      C2028   1.402       .  A
C2027      N2034   1.439       .  S
C2028      C2029   1.396       .  A
C2028      H2033   1.084       .  S
C2029      C2030   1.424       .  A
C2030      N2031   1.446       .  S
N2031      O2035   1.263       .  A
N2031      O2036   1.261       .  A
N2034      O2037   1.262       .  A
N2034      O2038   1.263       .  A
C2039      C2040   1.409       .  A
C2039      C2044   1.409       .  A
C2039      H2046   1.082       .  S
C2040      C2041   1.414       .  A
C2041      C2042   1.409       .  A
C2041      N2048   1.436       .  S
C2042      C2043   1.408       .  A
C2042      H2047   1.083       .  S
C2043      C2044   1.412       .  A
C2044      N2045   1.442       .  S
N2045      O2049   1.263       .  A
N2045      O2050   1.263       .  A
N2048      O2051   1.262       .  A
N2048      O2052   1.263       .  A
C2053      C2054   1.407       .  A
C2053      C2058   1.404       .  A
C2053      H2060   1.083       .  S
C2055      C2056   1.402       .  A
C2055      N2062   1.435       .  S
C2056      C2057   1.406   1_655  A
C2056      H2061   1.084       .  S
C2058      N2059   1.436       .  S
N2059      O2063   1.263       .  A
N2059      O2064   1.263       .  A
N2062      O2065   1.262       .  A
N2062      O2066   1.263       .  A
C2067      C2068   1.400       .  A
C2067      H2074   1.084       .  S
C2069      N2076   1.442       .  S
C2070      H2075   1.083       .  S
C2071      C2072   1.408       .  A
C2072      N2073   1.438       .  S
N2073      O2077   1.262       .  A
N2073      O2078   1.262       .  A
N2076      O2079   1.263       .  A
N2076      O2080   1.262       .  A
