geometry optimzed in LAMMPS
_audit_creation_date              2020-12-01 
_audit_creation_method            'lammps2cif' 
_symmetry_space_group_name_H-M    'P1' 
_symmetry_Int_Tables_number       1 
_symmetry_cell_setting            triclinic 
loop_ 
_symmetry_equiv_pos_as_xyz 
  x,y,z 
_cell_length_a                    43.44575347 
_cell_length_b                    43.49887283046373 
_cell_length_c                    31.9457944635025 
_cell_angle_alpha                 90.21803508923504 
_cell_angle_beta                  89.95298000920845 
_cell_angle_gamma                 120.11349166143276 
loop_ 
_atom_site_label 
_atom_site_type_symbol 
_atom_site_fract_x 
_atom_site_fract_y 
_atom_site_fract_z 
_atom_site_charge 
Fe1        Fe  0.54093130  0.61339179  0.24366525     1.65800
Fe2        Fe  0.50685769  0.66718341  0.24769537     1.73200
Fe3        Fe  0.59581875  0.70239064  0.25221213     1.54400
O4          O  0.61565962  0.67626439  0.28882944    -0.82500
O5          O  0.52592034  0.69910116  0.19637799    -0.80800
O6          O  0.57051179  0.62103596  0.29572060    -0.85000
O7          O  0.58462129  0.62911001  0.20558399    -0.79900
O8          O  0.58224771  0.71870620  0.30709189    -0.81600
O9          O  0.47640612  0.62422429  0.20769536    -0.84400
C10         C  0.60702349  0.65766429  0.18762154     0.96400
C11         C  0.60147435  0.64546048  0.30511036     1.03800
O12         O  0.54807196  0.66100127  0.24760416    -1.13400
O13         O  0.48679609  0.63545844  0.29983929    -0.75800
O14         O  0.49615970  0.59129104  0.28208326    -0.79300
O15         O  0.61212772  0.68813066  0.19809068    -0.80000
C16         C  0.48209270  0.60451579  0.30564893     0.95300
O17         O  0.51101952  0.60216995  0.19056300    -0.77900
O18         O  0.53039951  0.71144893  0.28689422    -0.83100
C19         C  0.55565055  0.72757570  0.19294770     0.97900
C20         C  0.55657451  0.72444192  0.31215187     1.03800
O21         O  0.58251891  0.73412262  0.21553708    -0.78800
C22         C  0.48328222  0.60418373  0.18531241     1.02100
Fe23       Fe  0.37624494  0.45189505  0.99460192     1.65800
Fe24       Fe  0.32692108  0.49393765  0.49935246     1.73200
Fe25       Fe  0.28646434  0.40309809  0.49814778     1.54400
O26         O  0.30259702  0.38637254  0.44641374    -0.82500
O27         O  0.28212879  0.46806735  0.03857719    -0.80800
O28         O  0.36080290  0.41110991  0.45814193    -0.85000
O29         O  0.36465525  0.41880307  0.04458489    -0.79900
O30         O  0.26000685  0.41936441  0.45712509    -0.81600
O31         O  0.35801239  0.50984592  0.05022428    -0.84400
C32         C  0.33853808  0.38821141  0.05218561     0.96400
C33         C  0.33271390  0.38970864  0.43849432     1.03800
O34         O  0.32969535  0.45027395  0.49836409    -1.13400
O35         O  0.37070080  0.52195504  0.46041693    -0.75800
O36         O  0.39174000  0.48616866  0.44589537    -0.79300
O37         O  0.30812430  0.37693380  0.03548801    -0.80000
C38         C  0.39129807  0.51472120  0.43984972     0.95300
O39         O  0.39864254  0.49431384  0.03610843    -0.77900
O40         O  0.29378548  0.47785005  0.44733207    -0.83100
C41         C  0.26319400  0.43861886  0.05696304     0.97900
C42         C  0.26699953  0.44782154  0.43799145     1.03800
O43         O  0.26501852  0.41104366  0.04825855    -0.78800
C44         C  0.38772103  0.51180645  0.05709820     1.02100
Fe45       Fe  0.06598469  0.44624227  0.24741898     1.65800
Fe46       Fe  0.15663547  0.48743148  0.24391272     1.73200
Fe47       Fe  0.10659324  0.39587500  0.24806163     1.54400
O48         O  0.07158885  0.37829112  0.29808150    -0.82500
O49         O  0.17570060  0.46711025  0.19866084    -0.80800
O50         O  0.04403464  0.40981405  0.29442326    -0.85000
O51         O  0.04101307  0.40778902  0.20310614    -0.79900
O52         O  0.14755581  0.41212217  0.29133572    -0.81600
O53         O  0.14152348  0.50942978  0.19648152    -0.84400
C54         C  0.04222052  0.38061716  0.19153334     0.96400
C55         C  0.04905401  0.38641601  0.31131064     1.03800
O56         O  0.10977017  0.44314608  0.24625168    -1.13400
O57         O  0.14388164  0.51391697  0.28863340    -0.75800
O58         O  0.08489925  0.48463662  0.29275204    -0.79300
O59         O  0.06482495  0.37277405  0.20535831    -0.80000
C60         C  0.11506181  0.50951634  0.30417906     0.95300
O61         O  0.08244207  0.48368588  0.20042888    -0.77900
O62         O  0.17761413  0.47135526  0.29142897    -0.83100
C63         C  0.16743100  0.43658171  0.18452529     0.97900
C64         C  0.17217469  0.44171456  0.30524867     1.03800
O65         O  0.14164336  0.40793432  0.19863804    -0.78800
C66         C  0.11210092  0.50602375  0.18456449     1.02100
Fe67       Fe  0.53060322  0.91067722  0.00647608     1.65800
Fe68       Fe  0.50032007  0.82467950  0.50346632     1.73200
Fe69       Fe  0.58983670  0.88248242  0.50080277     1.54400
O70         O  0.60735451  0.92611568  0.46033206    -0.82500
O71         O  0.52025189  0.80643784  0.04594210    -0.80800
O72         O  0.56102297  0.93419452  0.45416488    -0.85000
O73         O  0.57207654  0.94094741  0.04660516    -0.79900
O74         O  0.57828394  0.84935938  0.44872247    -0.81600
O75         O  0.46945870  0.83123422  0.04171711    -0.84400
C76         C  0.59762148  0.93938675  0.06340416     0.96400
C77         C  0.59219375  0.94189812  0.44425740     1.03800
O78         O  0.54075200  0.87331609  0.50396146    -1.13400
O79         O  0.47859240  0.83458549  0.45141646    -0.75800
O80         O  0.48719820  0.88817207  0.46721175    -0.79300
O81         O  0.60567354  0.91608419  0.05350542    -0.80000
C82         C  0.47344059  0.86034446  0.44453071     0.95300
O83         O  0.49817440  0.88899110  0.05771065    -0.77900
O84         O  0.52455825  0.80525954  0.46435623    -0.83100
C85         C  0.55102934  0.81519054  0.05941312     0.97900
C86         C  0.55254569  0.81798951  0.44244790     1.03800
O87         O  0.57916941  0.84126746  0.04424787    -0.78800
C88         C  0.47328171  0.85739077  0.06382227     1.02100
Fe89       Fe  0.91762952  0.37275375  0.00376299     1.65800
Fe90       Fe  0.82765047  0.31588497  0.49809166     1.73200
Fe91       Fe  0.88486600  0.28242286  0.49806684     1.54400
O92         O  0.92772752  0.30640879  0.45659196    -0.82500
O93         O  0.80936910  0.27862018  0.04396278    -0.80800
O94         O  0.94207841  0.36301791  0.45315037    -0.85000
O95         O  0.94244539  0.35934917  0.04953483    -0.79900
O96         O  0.85078571  0.25903529  0.44810019    -0.81600
O97         O  0.83752796  0.35406462  0.04722427    -0.84400
C98         C  0.94070569  0.33095977  0.06255931     0.96400
C99         C  0.94678186  0.33771995  0.44239030     1.03800
O100        O  0.87654982  0.32337676  0.49927655    -1.13400
O101        O  0.83833725  0.35259314  0.45160798    -0.75800
O102        O  0.89605048  0.39133523  0.45825792    -0.79300
O103        O  0.91950682  0.30053865  0.04774987    -0.80000
C104        C  0.86596842  0.38135990  0.44160597     0.95300
O105        O  0.89632284  0.38907800  0.05021755    -0.77900
O106        O  0.81086174  0.27698466  0.45278294    -0.83100
C107        C  0.81834269  0.25702876  0.05791660     0.97900
C108        C  0.82244543  0.25815139  0.43645761     1.03800
O109        O  0.84458948  0.25519722  0.04339804    -0.78800
C110        C  0.86531033  0.37997113  0.06294013     1.02100
Fe111      Fe  0.61109693  0.07466885  0.25098004     1.65800
Fe112      Fe  0.67015241  0.16193976  0.24956894     1.73200
Fe113      Fe  0.69917558  0.10229296  0.25085158     1.54400
O114        O  0.67381087  0.06099081  0.29416189    -0.82500
O115        O  0.69892837  0.17047677  0.19586061    -0.80800
O116        O  0.61915538  0.05251466  0.30292498    -0.85000
O117        O  0.61974248  0.04133794  0.21291397    -0.79900
O118        O  0.72376416  0.13525081  0.30078953    -0.81600
O119        O  0.62600225  0.15108144  0.21272867    -0.84400
C120        C  0.64617082  0.04370646  0.19326859     0.96400
C121        C  0.64429389  0.04733124  0.31373068     1.03800
O122        O  0.66028986  0.11287997  0.25111751    -1.13400
O123        O  0.64121857  0.15609844  0.30296956    -0.75800
O124        O  0.59475590  0.10250090  0.28992092    -0.79300
O125        O  0.67797062  0.06792579  0.20050226    -0.80000
C126        C  0.60941488  0.13190088  0.30991476     0.95300
O127        O  0.60053371  0.09389879  0.19767705    -0.77900
O128        O  0.71558746  0.18079112  0.28661019    -0.83100
C129        C  0.72506747  0.16591328  0.18878682     0.97900
C130        C  0.73052926  0.16677814  0.30699540     1.03800
O131        O  0.72995068  0.14348052  0.20901284    -0.78800
C132        C  0.60389825  0.12414437  0.19166996     1.02100
Fe133      Fe  0.91356256  0.53328682  0.25203648     1.65800
Fe134      Fe  0.82309354  0.49525715  0.25242228     1.73200
Fe135      Fe  0.87624222  0.58657478  0.25090644     1.54400
O136        O  0.91706471  0.60775472  0.29499018    -0.82500
O137        O  0.80443015  0.51317601  0.20470456    -0.80800
O138        O  0.93886554  0.57106411  0.29744423    -0.85000
O139        O  0.93784882  0.57013578  0.20591872    -0.79900
O140        O  0.84022398  0.57491720  0.29911092    -0.81600
O141        O  0.83510106  0.46832609  0.20803281    -0.84400
C142        C  0.93447529  0.59469854  0.18945675     0.96400
C143        C  0.93870940  0.59877790  0.30924223     1.03800
O144        O  0.87094645  0.53842639  0.25190042    -1.13400
O145        O  0.83576957  0.47179548  0.30037458    -0.75800
O146        O  0.89467779  0.49553909  0.29836769    -0.79300
O147        O  0.91251978  0.60376720  0.20225138    -0.80000
C148        C  0.86441656  0.47410197  0.31348373     0.95300
O149        O  0.89411399  0.49504664  0.20599579    -0.77900
O150        O  0.80436903  0.51602455  0.29669821    -0.83100
C151        C  0.81143034  0.54349921  0.19170782     0.97900
C152        C  0.81344422  0.54637741  0.31179558     1.03800
O153        O  0.83657733  0.57237861  0.20644696    -0.78800
C154        C  0.86362375  0.47143958  0.19342149     1.02100
Fe155      Fe  0.45791457  0.07611949  0.99478580     1.65800
Fe156      Fe  0.48426700  0.16386278  0.49982031     1.73200
Fe157      Fe  0.39558744  0.10130197  0.49899014     1.54400
O158        O  0.38298972  0.07017486  0.44502265    -0.82500
O159        O  0.45858092  0.17836992  0.04379855    -0.80800
O160        O  0.41745725  0.04605119  0.45264746    -0.85000
O161        O  0.42674365  0.05015695  0.04476325    -0.79900
O162        O  0.40463793  0.14488272  0.46247899    -0.81600
O163        O  0.50877751  0.15397868  0.05223786    -0.84400
C164        C  0.39490497  0.04073362  0.05358654     0.96400
C165        C  0.39183537  0.04728495  0.43507421     1.03800
O166        O  0.44600360  0.11397211  0.49736334    -1.13400
O167        O  0.51778719  0.15737965  0.45832921    -0.75800
O168        O  0.49141177  0.09955929  0.44365745    -0.79300
O169        O  0.37929255  0.05600706  0.03749129    -0.80000
C170        C  0.51547774  0.13145108  0.43726927     0.95300
O171        O  0.50032262  0.10033284  0.03675191    -0.77900
O172        O  0.46281364  0.17642238  0.44959097    -0.83100
C173        C  0.42961881  0.16275732  0.06420187     0.97900
C174        C  0.43116035  0.16995945  0.44362431     1.03800
O175        O  0.40493066  0.13132812  0.05590787    -0.78800
C176        C  0.51405261  0.12828178  0.05936131     1.02100
Fe177      Fe  0.60898883  0.53417902  0.00077960     1.65800
Fe178      Fe  0.65771631  0.49287352  0.50023220     1.73200
Fe179      Fe  0.69794590  0.58406917  0.50072860     1.54400
O180        O  0.67960771  0.60155276  0.45165689    -0.82500
O181        O  0.70045704  0.51528360  0.04430992    -0.80800
O182        O  0.62030769  0.56955366  0.45613477    -0.85000
O183        O  0.62243934  0.57231604  0.04601273    -0.79900
O184        O  0.72322736  0.56960601  0.45698200    -0.81600
O185        O  0.62438447  0.47212381  0.04910288    -0.84400
C186        C  0.65067402  0.60006657  0.05717341     0.96400
C187        C  0.64867192  0.59323094  0.43901793     1.03800
O188        O  0.65422519  0.53649724  0.50131164    -1.13400
O189        O  0.61741752  0.46677106  0.45724646    -0.75800
O190        O  0.58634128  0.49455868  0.45639102    -0.79300
O191        O  0.68109714  0.60852824  0.04266353    -0.80000
C192        C  0.59231371  0.47060851  0.44324108     0.95300
O193        O  0.58956070  0.49620542  0.04760075    -0.77900
O194        O  0.69309230  0.51059144  0.45112187    -0.83100
C195        C  0.72146092  0.54543175  0.06036447     0.97900
C196        C  0.71794852  0.54096276  0.44013086     1.03800
O197        O  0.72310466  0.57403985  0.04854195    -0.78800
C198        C  0.59819626  0.47454715  0.06255273     1.02100
Fe199      Fe  0.44421837  0.37208418  0.24835048     1.65800
Fe200      Fe  0.47768482  0.31592337  0.25118175     1.73200
Fe201      Fe  0.38698877  0.28194100  0.24949394     1.54400
O202        O  0.36767157  0.30461699  0.29163737    -0.82500
O203        O  0.45800129  0.27833188  0.20400389    -0.80800
O204        O  0.40758461  0.36237424  0.29369137    -0.85000
O205        O  0.40747461  0.35995814  0.20188992    -0.79900
O206        O  0.39693937  0.25892162  0.30056589    -0.81600
O207        O  0.50671190  0.35451389  0.20633419    -0.84400
C208        C  0.38246339  0.33221237  0.18511522     0.96400
C209        C  0.37912716  0.33571191  0.30597352     1.03800
O210        O  0.43628941  0.32326914  0.24949258    -1.13400
O211        O  0.50213921  0.35226751  0.29900806    -0.75800
O212        O  0.48191441  0.39016052  0.29472089    -0.79300
O213        O  0.37192464  0.30101782  0.19856644    -0.80000
C214        C  0.50146818  0.37968205  0.31129609     0.95300
O215        O  0.48246396  0.38894919  0.20297759    -0.77900
O216        O  0.45479270  0.27703677  0.29663826    -0.83100
C217        C  0.42698398  0.25488680  0.19250172     0.97900
C218        C  0.42446838  0.25880513  0.31370450     1.03800
O219        O  0.39887258  0.25273346  0.20749301    -0.78800
C220        C  0.50542192  0.38093129  0.19150076     1.02100
Fe221      Fe  0.06073450  0.60988381  0.99728994     1.65800
Fe222      Fe  0.15173768  0.66220171  0.49912065     1.73200
Fe223      Fe  0.09899357  0.69953579  0.50095567     1.54400
O224        O  0.06714728  0.68456880  0.44829805    -0.82500
O225        O  0.17108317  0.70489642  0.03821619    -0.80800
O226        O  0.03522176  0.62571519  0.45663249    -0.85000
O227        O  0.04145427  0.62088758  0.04924602    -0.79900
O228        O  0.14257632  0.72925228  0.46147368    -0.81600
O229        O  0.13893476  0.62823409  0.04712163    -0.84400
C230        C  0.03525832  0.64566824  0.05704863     0.96400
C231        C  0.04113960  0.65425788  0.43876988     1.03800
O232        O  0.10437472  0.65717968  0.49833191    -1.13400
O233        O  0.13833523  0.62185706  0.45531281    -0.75800
O234        O  0.07990328  0.59448927  0.44543030    -0.79300
O235        O  0.05246700  0.67599301  0.03978993    -0.80000
C236        C  0.11036746  0.59945125  0.43592505     0.95300
O237        O  0.08200779  0.58803301  0.03667155    -0.77900
O238        O  0.16891110  0.69738216  0.45018995    -0.83100
C239        C  0.15991740  0.72119864  0.06083866     0.97900
C240        C  0.16475720  0.72353311  0.44174931     1.03800
O241        O  0.12984002  0.71862363  0.05365307    -0.78800
C242        C  0.11130370  0.59869730  0.05547373     1.02100
Fe243      Fe  0.37553294  0.90931220  0.25071845     1.65800
Fe244      Fe  0.31706593  0.82126168  0.25461541     1.73200
Fe245      Fe  0.28677365  0.87962168  0.24783890     1.54400
O246        O  0.30735496  0.91669135  0.29682149    -0.82500
O247        O  0.27160740  0.80019502  0.21794058    -0.80800
O248        O  0.36603236  0.94231504  0.28798408    -0.85000
O249        O  0.36798134  0.93111524  0.19811968    -0.79900
O250        O  0.25632311  0.83985969  0.29212420    -0.81600
O251        O  0.34695188  0.82704739  0.20160427    -0.84400
C252        C  0.34247121  0.93459385  0.18467011     0.96400
C253        C  0.33913940  0.94052368  0.30573137     1.07400
O254        O  0.32634067  0.87020067  0.25084828    -1.13400
O255        O  0.36095276  0.83379776  0.29242049    -0.75800
O256        O  0.38671113  0.89159648  0.30447766    -0.79300
O257        O  0.31194524  0.91937038  0.20218888    -0.80000
C258        C  0.38312377  0.86153866  0.31217178     0.95300
O259        O  0.39263140  0.88166603  0.21280732    -0.77900
O260        O  0.28654322  0.81213597  0.30730201    -0.83100
C261        C  0.25619551  0.81203198  0.19486869     0.97900
C262        C  0.26053758  0.81728687  0.31323871     1.03800
O263        O  0.26282680  0.84385563  0.19859033    -0.78800
C264        C  0.37831446  0.85192257  0.19360961     1.02100
C265        C  0.21693140  0.75672508  0.33982852    -0.02700
C266        C  0.23322407  0.79398918  0.34432399     0.07000
C267        C  0.22438715  0.80806233  0.37913836    -0.02800
C268        C  0.20240155  0.78535069  0.41129138    -0.02800
C269        C  0.18679325  0.74798401  0.40737848     0.07100
C270        C  0.19326895  0.73388453  0.37051576    -0.03000
Br271      Br  0.16877510  0.68311019  0.36040080    -0.01500
Br272      Br  0.22585447  0.73654201  0.29038239    -0.01600
Br273      Br  0.19657447  0.80616723  0.46205622    -0.01600
Br274      Br  0.24270317  0.85846751  0.38328498    -0.01600
C275        C  0.20159221  0.79197422  0.14852955    -0.02700
C276        C  0.23019552  0.78761068  0.16232569     0.07000
C277        C  0.23379119  0.75956885  0.14460509    -0.02800
C278        C  0.21052140  0.73765886  0.11271894    -0.02800
C279        C  0.18328717  0.74363847  0.09665527     0.07100
C280        C  0.17939352  0.77132857  0.11500838    -0.03000
Br281      Br  0.14538052  0.78369695  0.09345615    -0.01500
Br282      Br  0.19014779  0.82404517  0.17773694    -0.01600
Br283      Br  0.21735055  0.69922475  0.09250156    -0.01600
Br284      Br  0.27082368  0.74994760  0.16286815    -0.01600
C285        C  0.53163832  0.43096031  0.41312976    -0.02700
C286        C  0.56897994  0.44619370  0.41020538     0.07000
C287        C  0.58388395  0.43828267  0.37531968    -0.02800
C288        C  0.56163898  0.41529249  0.34372453    -0.02800
C289        C  0.52451431  0.40078992  0.34629208     0.07100
C290        C  0.50955889  0.40845582  0.38116524    -0.03000
Br291      Br  0.45852934  0.38719041  0.38597084    -0.01500
Br292      Br  0.51002956  0.43974962  0.46130000    -0.01600
Br293      Br  0.58238464  0.40546901  0.29564314    -0.01600
Br294      Br  0.63492324  0.46109906  0.36853499    -0.01600
C295        C  0.53683937  0.39023431  0.12243824    -0.02700
C296        C  0.53186767  0.40431824  0.16002299     0.07000
C297        C  0.55032955  0.44158394  0.16633200    -0.02800
C298        C  0.57211054  0.46456476  0.13455825    -0.02800
C299        C  0.57632741  0.45050300  0.09659693     0.07100
C300        C  0.55905437  0.41327955  0.09085863    -0.03000
Br301      Br  0.56374820  0.39376727  0.03841147    -0.01500
Br302      Br  0.51150979  0.33951899  0.11284661    -0.01600
Br303      Br  0.59669484  0.51541445  0.14344257    -0.01600
Br304      Br  0.54697702  0.46144427  0.21927186    -0.01600
C305        C  0.34558230  0.95763540  0.38128592    -0.02700
C306        C  0.34624460  0.96705559  0.33905299     0.07000
C307        C  0.35913535  0.00301042  0.32874116    -0.02800
C308        C  0.37160255  0.02932351  0.36036733    -0.02800
C309        C  0.37159751  0.01991048  0.40254230     0.07100
C310        C  0.35657592  0.98366879  0.41291210    -0.03000
Br311      Br  0.35004122  0.96944619  0.47073611    -0.01500
Br312      Br  0.33516092  0.91030879  0.39545886    -0.01600
Br313      Br  0.39032643  0.07826972  0.34538173    -0.01600
Br314      Br  0.36289401  0.01672631  0.27089883    -0.01600
C315        C  0.38481514  0.98296617  0.08333815    -0.02700
C316        C  0.37617231  0.01040312  0.08334215     0.07000
C317        C  0.35148382  0.00917626  0.11322580    -0.02800
C318        C  0.33774215  0.98246932  0.14434628    -0.02800
C319        C  0.34982211  0.95774605  0.14716201     0.07100
C320        C  0.37236658  0.95744863  0.11532707    -0.03000
Br321      Br  0.38654002  0.92174811  0.11444732    -0.01500
Br322      Br  0.41341493  0.97896491  0.03915927    -0.01600
Br323      Br  0.30349976  0.98127620  0.18380519    -0.01600
Br324      Br  0.33813269  0.04537988  0.11415066    -0.01600
C325        C  0.43528298  0.18121103  0.13938892    -0.02700
C326        C  0.42465968  0.18292689  0.09823709     0.07000
C327        C  0.41238544  0.20657440  0.08872389    -0.02800
C328        C  0.41168462  0.22917614  0.11997640    -0.02800
C329        C  0.42377822  0.22858218  0.16073410     0.07100
C330        C  0.43467215  0.20387441  0.17064026    -0.03000
Br331      Br  0.44813660  0.20073441  0.22735061    -0.01500
Br332      Br  0.45191895  0.14871651  0.15237707    -0.01600
Br333      Br  0.39557928  0.26195575  0.10646997    -0.01600
Br334      Br  0.39777256  0.20882533  0.03232142    -0.01600
C335        C  0.44994740  0.23025565  0.41369168    -0.02700
C336        C  0.42550071  0.19323919  0.41405493     0.07000
C337        C  0.39633258  0.17926710  0.38584877    -0.02800
C338        C  0.39499857  0.20082701  0.35369980    -0.02800
C339        C  0.42188301  0.23689168  0.35066703     0.07100
C340        C  0.44775693  0.25192493  0.38260089    -0.03000
Br341      Br  0.47886067  0.30284725  0.38557798    -0.01500
Br342      Br  0.48531149  0.25232291  0.45740954    -0.01600
Br343      Br  0.35696852  0.18017733  0.31298403    -0.01600
Br344      Br  0.35785627  0.13079869  0.39039135    -0.01600
C345        C  0.00219599  0.63510313  0.33130118    -0.02700
C346        C  0.96577107  0.62142594  0.34043016     0.07000
C347        C  0.95560975  0.62625965  0.38072428    -0.02800
C348        C  0.98119634  0.64033464  0.41298023    -0.02800
C349        C  0.01699185  0.65089467  0.40445354     0.07100
C350        C  0.02787396  0.65144014  0.36296122    -0.03000
Br351      Br  0.07790573  0.67376990  0.35002588    -0.01500
Br352      Br  0.01702055  0.62945320  0.27622977    -0.01600
Br353      Br  0.96753965  0.64532250  0.46885126    -0.01600
Br354      Br  0.90640842  0.61078090  0.39261556    -0.01600
C355        C  0.95088447  0.58998915  0.11700263    -0.02700
C356        C  0.95612512  0.61150984  0.15223438     0.07000
C357        C  0.98477252  0.64675761  0.15345723    -0.02800
C358        C  0.00987905  0.65957146  0.12066543    -0.02800
C359        C  0.00592598  0.63702244  0.08666306     0.07100
C360        C  0.97512921  0.60287349  0.08390701    -0.03000
Br361      Br  0.96606212  0.57237770  0.03553664    -0.01500
Br362      Br  0.91161859  0.54155183  0.11525476    -0.01600
Br363      Br  0.05109095  0.70649128  0.12470281    -0.01600
Br364      Br  0.99156094  0.67608674  0.20189279    -0.01600
C365        C  0.75165750  0.52899745  0.16461928    -0.02700
C366        C  0.78872925  0.54509332  0.15838014     0.07000
C367        C  0.80377747  0.56226481  0.12016806    -0.02800
C368        C  0.78193494  0.56371044  0.08860245    -0.02800
C369        C  0.74483526  0.54684479  0.09457175     0.07100
C370        C  0.72975814  0.52947170  0.13256146    -0.03000
Br371      Br  0.67901223  0.50692385  0.14096193    -0.01500
Br372      Br  0.73075229  0.50722882  0.21757428    -0.01600
Br373      Br  0.80268478  0.58754951  0.03652940    -0.01600
Br374      Br  0.85385615  0.58149512  0.10973685    -0.01600
C375        C  0.78665359  0.52812630  0.38247818    -0.02700
C376        C  0.79132110  0.54780595  0.34575235     0.07000
C377        C  0.77212875  0.56570482  0.34006684    -0.02800
C378        C  0.74829691  0.56386952  0.37116978    -0.02800
C379        C  0.74273616  0.54310063  0.40728238     0.07100
C380        C  0.76194316  0.52518890  0.41280281    -0.03000
Br381      Br  0.75527140  0.49726376  0.46244887    -0.01500
Br382      Br  0.81511802  0.50611782  0.39191791    -0.01600
Br383      Br  0.72204400  0.58838900  0.36314883    -0.01600
Br384      Br  0.77667296  0.59076846  0.28857367    -0.01600
C385        C  0.55296578  0.12988185  0.33107760    -0.02700
C386        C  0.58779802  0.13784605  0.34153361     0.07000
C387        C  0.60068943  0.14987687  0.38250089    -0.02800
C388        C  0.57740982  0.14925142  0.41378155    -0.02800
C389        C  0.54170182  0.13810284  0.40388450     0.07100
C390        C  0.53021087  0.13026515  0.36210352    -0.03000
Br391      Br  0.48343784  0.12106535  0.34731317    -0.01500
Br392      Br  0.53667116  0.12014411  0.27378336    -0.01600
Br393      Br  0.59383363  0.16149745  0.47068972    -0.01600
Br394      Br  0.64965258  0.16627016  0.39669402    -0.01600
C395        C  0.52312555  0.10064275  0.12330937    -0.02700
C396        C  0.53620014  0.12987780  0.09588834     0.07000
C397        C  0.57042320  0.15944127  0.10315488    -0.02800
C398        C  0.59242954  0.15830288  0.13506761    -0.02800
C399        C  0.58040862  0.12734148  0.15990311     0.07100
C400        C  0.54510997  0.09884056  0.15428340    -0.03000
Br401      Br  0.52517720  0.05696391  0.18954902    -0.01500
Br402      Br  0.47368054  0.06406242  0.12145637    -0.01600
Br403      Br  0.63957877  0.19894443  0.14261085    -0.01600
Br404      Br  0.58773924  0.20148776  0.06911028    -0.01600
C405        C  0.77006998  0.20133422  0.41367641    -0.02700
C406        C  0.80107338  0.23328396  0.40316608     0.07000
C407        C  0.81072515  0.24181007  0.36098550    -0.02800
C408        C  0.78788120  0.21969459  0.32921205    -0.02800
C409        C  0.75640809  0.18808261  0.33972520     0.07100
C410        C  0.74881084  0.17783888  0.38196886    -0.03000
Br411      Br  0.70963205  0.13167530  0.39662910    -0.01500
Br412      Br  0.75584197  0.19043620  0.47142899    -0.01600
Br413      Br  0.80047356  0.23194730  0.27137734    -0.01600
Br414      Br  0.85469359  0.28419278  0.34695240    -0.01600
C415        C  0.78555555  0.24794353  0.12527729    -0.02700
C416        C  0.79729754  0.23377234  0.09320240     0.07000
C417        C  0.78766682  0.19750433  0.09470122    -0.02800
C418        C  0.76535772  0.17545630  0.12696565    -0.02800
C419        C  0.75127891  0.18910317  0.15690045     0.07100
C420        C  0.76194944  0.22566732  0.15610094    -0.03000
Br421      Br  0.74528570  0.24648368  0.19780498    -0.01500
Br422      Br  0.80319346  0.29857339  0.12913789    -0.01600
Br423      Br  0.75307121  0.12620551  0.12845483    -0.01600
Br424      Br  0.80307761  0.17694378  0.05157292    -0.01600
C425        C  0.88160619  0.44203431  0.41611698    -0.02700
C426        C  0.86328101  0.40474574  0.40975946     0.07000
C427        C  0.84318930  0.39041726  0.37262397    -0.02800
C428        C  0.84327788  0.41320819  0.34136210    -0.02800
C429        C  0.86266357  0.45031924  0.34729636     0.07100
C430        C  0.88167854  0.46467457  0.38474898    -0.03000
Br431      Br  0.90762975  0.51557128  0.39336280    -0.01500
Br432      Br  0.90487486  0.46259966  0.46884957    -0.01600
Br433      Br  0.81913862  0.39364513  0.28877044    -0.01600
Br434      Br  0.81619119  0.33975320  0.36306323    -0.01600
C435        C  0.84094625  0.41698480  0.09294309    -0.02700
C436        C  0.86197888  0.40083264  0.09756806     0.07000
C437        C  0.88213028  0.40684249  0.13439777    -0.02800
C438        C  0.88196633  0.42928548  0.16596865    -0.02800
C439        C  0.86164642  0.44613643  0.16102409     0.07100
C440        C  0.84059106  0.43942647  0.12471862    -0.03000
Br441      Br  0.81311939  0.46278662  0.11690404    -0.01500
Br442      Br  0.81500271  0.41097135  0.04162403    -0.01600
Br443      Br  0.90908627  0.43592505  0.21664377    -0.01600
Br444      Br  0.90993800  0.38403522  0.14223887    -0.01600
C445        C  0.60497740  0.00074291  0.41589442    -0.02700
C446        C  0.61087721  0.97146360  0.41386787     0.07000
C447        C  0.63283231  0.97043589  0.38182008    -0.02800
C448        C  0.64711728  0.99733173  0.35102524    -0.02800
C449        C  0.63786926  0.02425509  0.35076282     0.07100
C450        C  0.61849318  0.02685139  0.38473999    -0.03000
Br451      Br  0.61081396  0.06694461  0.38975449    -0.01500
Br452      Br  0.57752346  0.00585796  0.46066004    -0.01600
Br453      Br  0.67865571  0.99632470  0.30914978    -0.01600
Br454      Br  0.64046355  0.93046959  0.37692855    -0.01600
C455        C  0.61558479  0.95576608  0.13800577    -0.02700
C456        C  0.61797303  0.96611602  0.09593794     0.07000
C457        C  0.63399361  0.00248614  0.08593631    -0.02800
C458        C  0.64386201  0.02803341  0.11787076    -0.02800
C459        C  0.63902708  0.01739950  0.16004035     0.07100
C460        C  0.62487182  0.98119872  0.17007124    -0.03000
Br461      Br  0.61515414  0.96585552  0.22743536    -0.01500
Br462      Br  0.59909861  0.90679606  0.15164351    -0.01600
Br463      Br  0.65914867  0.07672925  0.10371753    -0.01600
Br464      Br  0.64322873  0.01731708  0.02833890    -0.01600
C465        C  0.41578969  0.82992384  0.40425098    -0.02700
C466        C  0.45093580  0.85854139  0.40867309     0.07000
C467        C  0.46432887  0.88647572  0.37931018    -0.02800
C468        C  0.44253030  0.88670679  0.34706947    -0.02800
C469        C  0.40647441  0.85944515  0.34450488     0.07100
C470        C  0.39324426  0.83093098  0.37320499    -0.03000
Br471      Br  0.34353467  0.79465359  0.37287966    -0.01500
Br472      Br  0.39797688  0.78947185  0.44103544    -0.01600
Br473      Br  0.46333182  0.92437214  0.30579635    -0.01600
Br474      Br  0.51334305  0.92398042  0.38114597    -0.01600
C475        C  0.43442049  0.85391532  0.17139069    -0.02700
C476        C  0.39988031  0.84681972  0.16116219     0.07000
C477        C  0.38814795  0.83895207  0.11922702    -0.02800
C478        C  0.41201354  0.84168763  0.08747156    -0.02800
C479        C  0.44732802  0.85121419  0.09751372     0.07100
C480        C  0.45828683  0.85700750  0.13968662    -0.03000
Br481      Br  0.50640762  0.87049871  0.15422856    -0.01500
Br482      Br  0.44844620  0.85740693  0.22925844    -0.01600
Br483      Br  0.39750939  0.83636902  0.02971502    -0.01600
Br484      Br  0.34005785  0.82603778  0.10461326    -0.01600
C485        C  0.09001417  0.56826267  0.36613990    -0.02700
C486        C  0.11312562  0.57793125  0.40118440     0.07000
C487        C  0.13787089  0.56570729  0.40330313    -0.02800
C488        C  0.13908528  0.54393461  0.37125994    -0.02800
C489        C  0.11591950  0.53438411  0.33660013     0.07100
C490        C  0.09178452  0.54711166  0.33392685    -0.03000
Br491      Br  0.06139287  0.53667233  0.28523336    -0.01500
Br492      Br  0.05546217  0.58367475  0.36072515    -0.01600
Br493      Br  0.17085310  0.52508171  0.37673721    -0.01600
Br494      Br  0.16868970  0.57596450  0.45133005    -0.01600
C495        C  0.09757840  0.51584125  0.11185220    -0.02700
C496        C  0.11237428  0.52972144  0.15140228     0.07000
C497        C  0.12601152  0.56612410  0.15995852    -0.02800
C498        C  0.12515830  0.58862183  0.12890458    -0.02800
C499        C  0.11260305  0.57529307  0.08829236     0.07100
C500        C  0.09864677  0.53864293  0.07999838    -0.03000
Br501      Br  0.08131421  0.51921812  0.02486457    -0.01500
Br502      Br  0.07506720  0.46535433  0.10158869    -0.01600
Br503      Br  0.13716733  0.63641909  0.14372675    -0.01600
Br504      Br  0.14357885  0.58464581  0.21529001    -0.01600
C505        C  0.00759479  0.38082047  0.41533162    -0.02700
C506        C  0.97660296  0.34656873  0.41292124     0.07000
C507        C  0.97422747  0.32275175  0.38096625    -0.02800
C508        C  0.00053332  0.33450986  0.34950658    -0.02800
C509        C  0.02849334  0.37000997  0.34941652     0.07100
C510        C  0.03304377  0.39240851  0.38342311    -0.03000
Br511      Br  0.07400205  0.43991395  0.38528629    -0.01500
Br512      Br  0.01624030  0.41320963  0.46161285    -0.01600
Br513      Br  0.99746318  0.30277049  0.30531807    -0.01600
Br514      Br  0.93401498  0.27512556  0.37742725    -0.01600
C515        C  0.95385075  0.32767846  0.13762213    -0.02700
C516        C  0.96530270  0.33398411  0.09582721     0.07000
C517        C  0.00136742  0.34699523  0.08623883    -0.02800
C518        C  0.02669418  0.35841479  0.11853006    -0.02800
C519        C  0.01586924  0.35793687  0.16012087     0.07100
C520        C  0.97925689  0.34121181  0.16988507    -0.03000
Br521      Br  0.96393593  0.33908012  0.22698187    -0.01500
Br522      Br  0.90366384  0.30070042  0.15027043    -0.01600
Br523      Br  0.07635029  0.37756721  0.10554818    -0.01600
Br524      Br  0.01583682  0.34920913  0.02886473    -0.01600
C525        C  0.35728453  0.32981329  0.37936391    -0.02700
C526        C  0.35904260  0.34227106  0.33829762     0.07000
C527        C  0.34713971  0.36635347  0.32970468    -0.02800
C528        C  0.33557904  0.37964332  0.36246821    -0.02800
C529        C  0.33631984  0.36931147  0.40392811     0.07100
C530        C  0.34597018  0.34344013  0.41222992    -0.03000
Br531      Br  0.34484909  0.32769386  0.46881099    -0.01500
Br532      Br  0.37393581  0.29709751  0.39121278    -0.01600
Br533      Br  0.32195943  0.41458093  0.35098651    -0.01600
Br534      Br  0.34888844  0.38295475  0.27323641    -0.01600
C535        C  0.38998233  0.35451584  0.11285048    -0.02700
C536        C  0.36708782  0.33765444  0.14678621     0.07000
C537        C  0.33182482  0.33088558  0.14552754    -0.02800
C538        C  0.32052499  0.34380842  0.11185739    -0.02800
C539        C  0.34536362  0.36552125  0.08105367     0.07100
C540        C  0.37924764  0.36822707  0.08001927    -0.03000
Br541      Br  0.41145851  0.39006827  0.03333582    -0.01500
Br542      Br  0.43705383  0.36027567  0.11222081    -0.01600
Br543      Br  0.27134384  0.33141054  0.10872569    -0.01600
Br544      Br  0.30022018  0.30696897  0.19172645    -0.01600
C545        C  0.25633318  0.46250959  0.36470615    -0.02700
C546        C  0.24260681  0.44570325  0.40364859     0.07000
C547        C  0.20522514  0.42638513  0.40937378    -0.02800
C548        C  0.18215926  0.42434904  0.37697440    -0.02800
C549        C  0.19608182  0.44194681  0.33865823     0.07100
C550        C  0.23322495  0.46054290  0.33247781    -0.03000
Br551      Br  0.25248986  0.48158199  0.27858503    -0.01500
Br552      Br  0.30670798  0.48686297  0.35384075    -0.01600
Br553      Br  0.13136244  0.39831056  0.38586433    -0.01600
Br554      Br  0.18504502  0.40406605  0.46237307    -0.01600
C555        C  0.21530608  0.45098216  0.08078422    -0.02700
C556        C  0.23758734  0.43665175  0.08919208     0.07000
C557        C  0.23570350  0.42134735  0.12872044    -0.02800
C558        C  0.21103549  0.41926661  0.15887434    -0.02800
C559        C  0.18972960  0.43458243  0.15084386     0.07100
C560        C  0.19198429  0.45046263  0.11177340    -0.03000
Br561      Br  0.16252913  0.47099703  0.10035865    -0.01500
Br562      Br  0.21598158  0.47107617  0.02664837    -0.01600
Br563      Br  0.20763685  0.39683740  0.21209038    -0.01600
Br564      Br  0.26966785  0.40713328  0.14382929    -0.01600
C565        C  0.65051000  0.64520359  0.40335807    -0.02700
C566        C  0.64452033  0.61028581  0.40153973     0.07000
C567        C  0.62956015  0.58948692  0.36539635    -0.02800
C568        C  0.61915556  0.60292703  0.33189279    -0.02800
C569        C  0.62101569  0.63624653  0.33571026     0.07100
C570        C  0.63743052  0.65770444  0.37124031    -0.03000
Br571      Br  0.63799552  0.70193723  0.37886295    -0.01500
Br572      Br  0.67478081  0.67500386  0.45087516    -0.01600
Br573      Br  0.60157264  0.57484401  0.28116535    -0.01600
Br574      Br  0.62171225  0.54170272  0.36252039    -0.01600
C575        C  0.65237362  0.64400008  0.16009725    -0.02700
C576        C  0.62648601  0.65374687  0.15228188     0.07000
C577        C  0.61320648  0.65117028  0.11149055    -0.02800
C578        C  0.62378269  0.63636742  0.07928461    -0.02800
C579        C  0.64702147  0.62333361  0.08805144     0.07100
C580        C  0.66259286  0.62864621  0.12803630    -0.03000
Br581      Br  0.69484593  0.61147878  0.14014856    -0.01500
Br582      Br  0.67180332  0.64948061  0.21565804    -0.01600
Br583      Br  0.60514022  0.63253165  0.02344162    -0.01600
Br584      Br  0.57742295  0.66412460  0.10086883    -0.01600
C585        C  0.44787317  0.59520825  0.11964009    -0.02700
C586        C  0.45757786  0.58088223  0.15326737     0.07000
C587        C  0.44400841  0.54385860  0.15537860    -0.02800
C588        C  0.42096150  0.52129305  0.12407070    -0.02800
C589        C  0.41094232  0.53550023  0.09065209     0.07100
C590        C  0.42461073  0.57252406  0.08832807    -0.03000
Br591      Br  0.41375322  0.59240016  0.04045204    -0.01500
Br592      Br  0.46839308  0.64601012  0.11481604    -0.01600
Br593      Br  0.40288784  0.47074066  0.12742099    -0.01600
Br594      Br  0.45626860  0.52367018  0.20186840    -0.01600
C595        C  0.42703286  0.58151721  0.34994669    -0.02700
C596        C  0.45957553  0.58298546  0.34116546     0.07000
C597        C  0.47111219  0.56464505  0.36740743    -0.02800
C598        C  0.44909395  0.54274061  0.39974811    -0.02800
C599        C  0.41578875  0.54026444  0.40779863     0.07100
C600        C  0.40639795  0.56215443  0.38459197    -0.03000
Br601      Br  0.36672489  0.56816855  0.40029574    -0.01500
Br602      Br  0.40893795  0.60382648  0.31281737    -0.01600
Br603      Br  0.46704475  0.51898040  0.43505390    -0.01600
Br604      Br  0.51826245  0.57110171  0.36155206    -0.01600
C605        C  0.52976886  0.76125132  0.16010273    -0.02700
C606        C  0.55786088  0.75394933  0.16207056     0.07000
C607        C  0.58526793  0.76883622  0.13202207    -0.02800
C608        C  0.58305223  0.78850968  0.09823204    -0.02800
C609        C  0.55375440  0.79430837  0.09485937     0.07100
C610        C  0.52683293  0.77996817  0.12608349    -0.03000
Br611      Br  0.48438495  0.78384521  0.12316167    -0.01500
Br612      Br  0.49611033  0.74744610  0.20590097    -0.01600
Br613      Br  0.61838942  0.80349228  0.05444133    -0.01600
Br614      Br  0.62558552  0.76168915  0.13635273    -0.01600
C615        C  0.52361468  0.74302329  0.36211351    -0.02700
C616        C  0.55642340  0.74737043  0.34754461     0.07000
C617        C  0.58837989  0.77480475  0.36571870    -0.02800
C618        C  0.58725619  0.79724017  0.39727364    -0.02800
C619        C  0.55455350  0.79473884  0.40885084     0.07100
C620        C  0.52281155  0.76787470  0.38979454    -0.03000
Br621      Br  0.47746630  0.76554907  0.39839336    -0.01500
Br622      Br  0.47859219  0.70122791  0.34785927    -0.01600
Br623      Br  0.63102495  0.83017926  0.42557105    -0.01600
Br624      Br  0.63439326  0.78307386  0.34764505    -0.01600
Fe625      Fe  0.54231336  0.61509048  0.74806485     1.65800
Fe626      Fe  0.50841481  0.66907909  0.75065022     1.73200
Fe627      Fe  0.59811678  0.70440803  0.75080937     1.54400
O628        O  0.61847162  0.67956625  0.78889737    -0.82500
O629        O  0.52630238  0.70030550  0.69834024    -0.80800
O630        O  0.57281096  0.62507872  0.79960491    -0.85000
O631        O  0.58524840  0.62895828  0.70918475    -0.79900
O632        O  0.58738351  0.72492865  0.80362633    -0.81600
O633        O  0.47749571  0.62537503  0.71183255    -0.84400
C634        C  0.60734738  0.65664181  0.68958957     0.96400
C635        C  0.60434278  0.64937035  0.80674293     1.03800
O636        O  0.54979526  0.66301563  0.74969241    -1.13400
O637        O  0.48910528  0.63845644  0.80377096    -0.75800
O638        O  0.49847357  0.59407287  0.78763063    -0.79300
O639        O  0.61255863  0.68742690  0.69791649    -0.80000
C640        C  0.48449515  0.60769668  0.81056852     0.95300
O641        O  0.51097315  0.60173459  0.69578547    -0.77900
O642        O  0.53239053  0.71357128  0.78921707    -0.83100
C643        C  0.55636668  0.72789636  0.69220928     0.97900
C644        C  0.56113953  0.72956302  0.81003944     1.03800
O645        O  0.58421623  0.73435676  0.71252681    -0.78800
C646        C  0.48357154  0.60437011  0.69020698     1.02100
Fe647      Fe  0.37626217  0.45408227  0.49779377     1.65800
Fe648      Fe  0.32525361  0.49014892  0.99852465     1.73200
Fe649      Fe  0.28615409  0.39950237  0.99641720     1.54400
O650        O  0.30221275  0.38304818  0.94469840    -0.82500
O651        O  0.28377648  0.47290734  0.53918532    -0.80800
O652        O  0.36102180  0.41000756  0.95334183    -0.85000
O653        O  0.36370870  0.42239183  0.54924123    -0.79900
O654        O  0.25925538  0.41511592  0.95574321    -0.81600
O655        O  0.35921891  0.51336784  0.55159707    -0.84400
C656        C  0.33798071  0.39136847  0.55573803     0.96400
C657        C  0.33247803  0.38751647  0.93526438     1.03800
O658        O  0.32911777  0.44708125  0.99650744    -1.13400
O659        O  0.36878819  0.51957437  0.95979762    -0.75800
O660        O  0.39189778  0.48571276  0.94415955    -0.79300
O661        O  0.30791027  0.37980414  0.53778823    -0.80000
C662        C  0.39068767  0.51403070  0.93954751     0.95300
O663        O  0.39951580  0.49744331  0.53798660    -0.77900
O664        O  0.29187432  0.47377081  0.94680339    -0.83100
C665        C  0.26486547  0.44378326  0.55818972     0.97900
C666        C  0.26560624  0.44350201  0.93707474     1.03800
O667        O  0.26599709  0.41575611  0.54973765    -0.78800
C668        C  0.38860622  0.51484654  0.55913845     1.02100
Fe669      Fe  0.06427867  0.44410161  0.74828519     1.65800
Fe670      Fe  0.15501614  0.48696373  0.74721200     1.73200
Fe671      Fe  0.10657769  0.39532738  0.74790484     1.54400
O672        O  0.07152071  0.37676427  0.79829495    -0.82500
O673        O  0.17627549  0.46829965  0.70305790    -0.80800
O674        O  0.04298901  0.40743566  0.79533585    -0.85000
O675        O  0.04014107  0.40589183  0.70351497    -0.79900
O676        O  0.14760059  0.41149648  0.79065244    -0.81600
O677        O  0.14008667  0.50875261  0.69910209    -0.84400
C678        C  0.04215250  0.37934883  0.69121497     0.96400
C679        C  0.04883945  0.38453476  0.81220372     1.03800
O680        O  0.10866315  0.44210162  0.74754710    -1.13400
O681        O  0.14062278  0.51233496  0.79128535    -0.75800
O682        O  0.08169661  0.48214016  0.79396748    -0.79300
O683        O  0.06507235  0.37194509  0.70493103    -0.80000
C684        C  0.11139774  0.50725304  0.80613946     0.95300
O685        O  0.08076581  0.48177068  0.70133217    -0.77900
O686        O  0.17518809  0.47056084  0.79538879    -0.83100
C687        C  0.16860201  0.43860129  0.68693098     0.97900
C688        C  0.17093356  0.44070751  0.80671064     1.03800
O689        O  0.14216936  0.40922918  0.69850850    -0.78800
C690        C  0.11057817  0.50463318  0.68615296     1.02100
Fe691      Fe  0.53140632  0.91259717  0.50627568     1.65800
Fe692      Fe  0.50069279  0.82287522  0.99813239     1.73200
Fe693      Fe  0.59081503  0.88242947  0.00224078     1.54400
O694        O  0.60830090  0.92640258  0.96193073    -0.82500
O695        O  0.52001158  0.81155324  0.55379837    -0.80800
O696        O  0.56214502  0.93481738  0.95595891    -0.85000
O697        O  0.57464286  0.94339142  0.54447565    -0.79900
O698        O  0.58275256  0.84961056  0.95081523    -0.81600
O699        O  0.46946926  0.83597223  0.54429289    -0.84400
C700        C  0.59972963  0.94086773  0.56134548     0.96400
C701        C  0.59358230  0.94288363  0.94640763     1.03800
O702        O  0.54089154  0.87189910  0.00246758    -1.13400
O703        O  0.47796320  0.83432582  0.94846614    -0.75800
O704        O  0.48757407  0.88777515  0.96619030    -0.79300
O705        O  0.60654011  0.91656163  0.55180421    -0.80000
C706        C  0.47297443  0.86030108  0.94316044     0.95300
O707        O  0.50075842  0.89369371  0.55917253    -0.77900
O708        O  0.52563702  0.80754987  0.95504319    -0.83100
C709        C  0.55119017  0.81831704  0.56289083     0.97900
C710        C  0.55634591  0.82017214  0.93914544     1.03800
O711        O  0.57850438  0.84130393  0.54284043    -0.78800
C712        C  0.47485967  0.86283186  0.56603531     1.02100
Fe713      Fe  0.91725723  0.37197185  0.50164769     1.65800
Fe714      Fe  0.82769558  0.31770632  0.99957593     1.73200
Fe715      Fe  0.88384710  0.28281113  0.99910557     1.54400
O716        O  0.92595969  0.30569699  0.95636335    -0.82500
O717        O  0.81099627  0.27861943  0.54444049    -0.80800
O718        O  0.94426189  0.36320642  0.95774505    -0.85000
O719        O  0.94465603  0.35915200  0.54512455    -0.79900
O720        O  0.84851312  0.25913512  0.95012313    -0.81600
O721        O  0.83767769  0.35380569  0.54366468    -0.84400
C722        C  0.94206726  0.33091359  0.56017661     0.96400
C723        C  0.94721641  0.33739411  0.94466143     1.03800
O724        O  0.87635673  0.32436277  0.00077264    -1.13400
O725        O  0.83985203  0.35624752  0.95493413    -0.75800
O726        O  0.89848535  0.39205268  0.95797885    -0.79300
O727        O  0.91936232  0.30016242  0.54769287    -0.80000
C728        C  0.86822957  0.38339792  0.94281585     0.95300
O729        O  0.89656212  0.38681607  0.55018587    -0.77900
O730        O  0.81108073  0.28030876  0.95233420    -0.83100
C731        C  0.81966480  0.25652944  0.55742895     0.97900
C732        C  0.82132743  0.25995555  0.93716216     1.03800
O733        O  0.84498281  0.25388584  0.54137172    -0.78800
C734        C  0.86531354  0.37865719  0.56098485     1.02100
Fe735      Fe  0.61111872  0.07336808  0.74886107     1.65800
Fe736      Fe  0.66941270  0.16159169  0.74809143     1.73200
Fe737      Fe  0.70010333  0.10288780  0.75134828     1.54400
O738        O  0.67555458  0.06290632  0.79630902    -0.82500
O739        O  0.70068864  0.17172548  0.69617854    -0.80800
O740        O  0.61913258  0.04998747  0.79988107    -0.85000
O741        O  0.62106681  0.04197916  0.70902945    -0.79900
O742        O  0.72469479  0.13724434  0.80024396    -0.81600
O743        O  0.62679090  0.15060543  0.70860115    -0.84400
C744        C  0.64833004  0.04387166  0.69210943     0.96400
C745        C  0.64502391  0.04719955  0.81356881     1.03800
O746        O  0.66031103  0.11254211  0.74984533    -1.13400
O747        O  0.63811494  0.15487603  0.79963529    -0.75800
O748        O  0.59389301  0.09945387  0.78938240    -0.79300
O749        O  0.67986514  0.06702027  0.70219721    -0.80000
C750        C  0.60722883  0.12941165  0.80804165     0.95300
O751        O  0.59912923  0.09278014  0.69656348    -0.77900
O752        O  0.71338325  0.18098023  0.78771588    -0.83100
C753        C  0.72615193  0.16618403  0.68858266     0.97900
C754        C  0.72969965  0.16803557  0.80732700     1.03800
O755        O  0.73026690  0.14300836  0.70819761    -0.78800
C756        C  0.60372654  0.12330532  0.68889155     1.02100
Fe757      Fe  0.91358956  0.53162261  0.74777968     1.65800
Fe758      Fe  0.82304514  0.49315111  0.75151404     1.73200
Fe759      Fe  0.87572160  0.58443335  0.74852541     1.54400
O760        O  0.91635435  0.60528690  0.79276271    -0.82500
O761        O  0.80321411  0.51067996  0.70465253    -0.80800
O762        O  0.94001055  0.57013243  0.79242583    -0.85000
O763        O  0.93637023  0.56774626  0.70062494    -0.79900
O764        O  0.83984509  0.57279946  0.79682571    -0.81600
O765        O  0.83397678  0.46613458  0.70628352    -0.84400
C766        C  0.93321331  0.59283224  0.68540561     0.96400
C767        C  0.93877288  0.59690762  0.80588337     1.03800
O768        O  0.87076955  0.53644671  0.74937677    -1.13400
O769        O  0.83722764  0.47028616  0.79869428    -0.75800
O770        O  0.89613587  0.49451769  0.79484249    -0.79300
O771        O  0.91194751  0.60222839  0.69974402    -0.80000
C772        C  0.86630307  0.47309542  0.81097912     0.95300
O773        O  0.89297073  0.49271200  0.70258270    -0.77900
O774        O  0.80509636  0.51379048  0.79690696    -0.83100
C775        C  0.81026842  0.54074914  0.69062887     0.97900
C776        C  0.81384649  0.54436377  0.81093250     1.03800
O777        O  0.83590624  0.56986082  0.70420712    -0.78800
C778        C  0.86217277  0.46910976  0.69087867     1.02100
Fe779      Fe  0.45837032  0.07673155  0.49414025     1.65800
Fe780      Fe  0.48513984  0.16359118  0.00147840     1.73200
Fe781      Fe  0.39622972  0.10204136  0.00138748     1.54400
O782        O  0.38278954  0.07154714  0.94705696    -0.82500
O783        O  0.45708573  0.17815673  0.54138876    -0.80800
O784        O  0.41620334  0.04611885  0.95329596    -0.85000
O785        O  0.42686710  0.05084120  0.54420981    -0.79900
O786        O  0.40565063  0.14601565  0.96543524    -0.81600
O787        O  0.50807868  0.15508145  0.55115325    -0.84400
C788        C  0.39500019  0.04142458  0.55309229     0.96400
C789        C  0.39071786  0.04817322  0.93640373     1.03800
O790        O  0.44637587  0.11392838  0.99896169    -1.13400
O791        O  0.51808255  0.15662374  0.95918684    -0.75800
O792        O  0.49069331  0.09880119  0.94438209    -0.79300
O793        O  0.37905134  0.05593628  0.53599749    -0.80000
C794        C  0.51508415  0.13049757  0.93783601     0.95300
O795        O  0.50030260  0.10161434  0.53622951    -0.77900
O796        O  0.46373211  0.17679793  0.95174645    -0.83100
C797        C  0.42811897  0.16227215  0.56165023     0.97900
C798        C  0.43214591  0.17065197  0.94605973     1.03800
O799        O  0.40354118  0.13084738  0.55314432    -0.78800
C800        C  0.51364536  0.12961949  0.55862207     1.02100
Fe801      Fe  0.60695361  0.53246315  0.50255919     1.65800
Fe802      Fe  0.66004872  0.49486181  0.00053050     1.73200
Fe803      Fe  0.70006946  0.58616339  0.99961784     1.54400
O804        O  0.68207448  0.60334354  0.95028859    -0.82500
O805        O  0.69833036  0.51249179  0.54342473    -0.80800
O806        O  0.62276494  0.57113884  0.95404546    -0.85000
O807        O  0.62091671  0.57011546  0.54823000    -0.79900
O808        O  0.72555208  0.57137909  0.95618109    -0.81600
O809        O  0.62260618  0.46999763  0.54904067    -0.84400
C810        C  0.64927865  0.59769907  0.55929866     0.96400
C811        C  0.65127241  0.59502421  0.93736669     1.03800
O812        O  0.65639532  0.53843168  0.00045090    -1.13400
O813        O  0.61996816  0.46813817  0.95692493    -0.75800
O814        O  0.58880239  0.49584538  0.95487134    -0.79300
O815        O  0.67952061  0.60627174  0.54430159    -0.80000
C816        C  0.59478558  0.47170267  0.94240632     0.95300
O817        O  0.58807761  0.49445898  0.54904580    -0.77900
O818        O  0.69602753  0.51221649  0.95195165    -0.83100
C819        C  0.71917747  0.54228174  0.56023532     0.97900
C820        C  0.72061229  0.54250348  0.94026182     1.03800
O821        O  0.72083798  0.57113367  0.54928968    -0.78800
C822        C  0.59682383  0.47270518  0.56328743     1.02100
Fe823      Fe  0.44438024  0.37045144  0.74940073     1.65800
Fe824      Fe  0.47879033  0.31503855  0.75148466     1.73200
Fe825      Fe  0.38785352  0.28024735  0.74812527     1.54400
O826        O  0.36749091  0.30165368  0.79027692    -0.82500
O827        O  0.45970167  0.27735223  0.70433919    -0.80800
O828        O  0.40720059  0.35943132  0.79430894    -0.85000
O829        O  0.40778883  0.35885342  0.70270835    -0.79900
O830        O  0.39789618  0.25666568  0.79899024    -0.81600
O831        O  0.50712208  0.35342711  0.70675237    -0.84400
C832        C  0.38294480  0.33151769  0.68503072     0.96400
C833        C  0.37848072  0.33241764  0.80529040     1.03800
O834        O  0.43700082  0.32185851  0.74949183    -1.13400
O835        O  0.50340144  0.35171325  0.79918935    -0.75800
O836        O  0.48188149  0.38853111  0.79612942    -0.79300
O837        O  0.37273287  0.30001216  0.69733779    -0.80000
C838        C  0.50226555  0.37876961  0.81199083     0.95300
O839        O  0.48299294  0.38808506  0.70451500    -0.77900
O840        O  0.45618351  0.27634012  0.79681324    -0.83100
C841        C  0.42889917  0.25441447  0.69166058     0.97900
C842        C  0.42567343  0.25740548  0.81307051     1.03800
O843        O  0.40059391  0.25227331  0.70575812    -0.78800
C844        C  0.50572865  0.37991666  0.69252685     1.02100
Fe845      Fe  0.06230048  0.60970799  0.49646077     1.65800
Fe846      Fe  0.15012635  0.66253911  0.99686861     1.73200
Fe847      Fe  0.09720419  0.69963363  0.00069066     1.54400
O848        O  0.06420839  0.68377255  0.94869419    -0.82500
O849        O  0.17169480  0.70383206  0.54170047    -0.80800
O850        O  0.03278552  0.62498359  0.95776325    -0.85000
O851        O  0.04180094  0.62011557  0.54794556    -0.79900
O852        O  0.13981010  0.72894222  0.95998685    -0.81600
O853        O  0.13898570  0.62720347  0.54898495    -0.84400
C854        C  0.03575221  0.64507433  0.55551895     0.96400
C855        C  0.03844098  0.65320286  0.93931889     1.03800
O856        O  0.10270824  0.65737358  0.99777863    -1.13400
O857        O  0.13580981  0.62149021  0.95406438    -0.75800
O858        O  0.07711661  0.59383873  0.94602405    -0.79300
O859        O  0.05348953  0.67554164  0.53871027    -0.80000
C860        C  0.10737813  0.59861316  0.93591729     0.95300
O861        O  0.08250587  0.58678427  0.53611481    -0.77900
O862        O  0.16581722  0.69698920  0.94742774    -0.83100
C863        C  0.15958731  0.71985736  0.56361349     0.97900
C864        C  0.16159084  0.72316438  0.93948495     1.03800
O865        O  0.13006649  0.71766050  0.55479938    -0.78800
C866        C  0.11124066  0.59747822  0.55622883     1.02100
Fe867      Fe  0.37321059  0.91264211  0.75404009     1.65800
Fe868      Fe  0.31676452  0.82414257  0.75553921     1.73200
Fe869      Fe  0.28410074  0.88075849  0.74789572     1.54400
O870        O  0.30273557  0.91763314  0.79741421    -0.82500
O871        O  0.27247430  0.80242127  0.71725603    -0.80800
O872        O  0.36165782  0.94389945  0.79137206    -0.85000
O873        O  0.36608905  0.93475030  0.70138336    -0.79900
O874        O  0.25368737  0.84054024  0.79136796    -0.81600
O875        O  0.34867373  0.83177193  0.70381816    -0.84400
C876        C  0.34032213  0.93705987  0.68637847     0.96400
C877        C  0.33410540  0.94147029  0.80791369     1.07400
O878        O  0.32452334  0.87260602  0.75220416    -1.13400
O879        O  0.35974616  0.83722175  0.79485968    -0.75800
O880        O  0.38376088  0.89460253  0.80805289    -0.79300
O881        O  0.30925566  0.92084871  0.70251767    -0.80000
C882        C  0.38097833  0.86484019  0.81537654     0.95300
O883        O  0.39257004  0.88703930  0.71625744    -0.77900
O884        O  0.28429470  0.81324834  0.80689801    -0.83100
C885        C  0.25602922  0.81332681  0.69472359     0.97900
C886        C  0.25787995  0.81789756  0.81228469     1.03800
O887        O  0.26147971  0.84481878  0.69848473    -0.78800
C888        C  0.37973884  0.85762524  0.69659278     1.02100
C889        C  0.21509574  0.75697319  0.83860952    -0.02700
C890        C  0.23012958  0.79413179  0.84264225     0.07000
C891        C  0.21916747  0.80772257  0.87601090    -0.02800
C892        C  0.19719508  0.78491111  0.90805507    -0.02800
C893        C  0.18324042  0.74768338  0.90498465     0.07100
C894        C  0.19111191  0.73386561  0.86884749    -0.03000
Br895      Br  0.16803254  0.68310031  0.85889410    -0.01500
Br896      Br  0.22577762  0.73722934  0.79006442    -0.01600
Br897      Br  0.18917790  0.80576074  0.95743641    -0.01600
Br898      Br  0.23397890  0.85751305  0.87806205    -0.01600
C899        C  0.20005447  0.79107938  0.65060914    -0.02700
C900        C  0.22971318  0.78810563  0.66315072     0.07000
C901        C  0.23314879  0.75963604  0.64641319    -0.02800
C902        C  0.20792341  0.73550253  0.61768648    -0.02800
C903        C  0.18160590  0.74188972  0.60019507     0.07100
C904        C  0.17770812  0.76993534  0.61752488    -0.03000
Br905      Br  0.14300935  0.78136433  0.59619136    -0.01500
Br906      Br  0.18712575  0.82136983  0.68135701    -0.01600
Br907      Br  0.20890769  0.69218375  0.60569462    -0.01600
Br908      Br  0.27266201  0.75278309  0.66082661    -0.01600
C909        C  0.53374057  0.43095975  0.91342343    -0.02700
C910        C  0.57111881  0.44662752  0.90980186     0.07000
C911        C  0.58562892  0.43868100  0.87456229    -0.02800
C912        C  0.56302649  0.41548772  0.84321160    -0.02800
C913        C  0.52582495  0.40037840  0.84661189     0.07100
C914        C  0.51125667  0.40797139  0.88193831    -0.03000
Br915      Br  0.46019151  0.38595582  0.88794807    -0.01500
Br916      Br  0.51266687  0.43987920  0.96198000    -0.01600
Br917      Br  0.58335375  0.40638724  0.79418525    -0.01600
Br918      Br  0.63659037  0.46166346  0.86713169    -0.01600
C919        C  0.53502281  0.38880703  0.62259218    -0.02700
C920        C  0.53176782  0.40302123  0.66095802     0.07000
C921        C  0.55153604  0.44010252  0.66805054    -0.02800
C922        C  0.57311541  0.46297533  0.63619622    -0.02800
C923        C  0.57549831  0.44883028  0.59740129     0.07100
C924        C  0.55682643  0.41171720  0.59082550    -0.03000
Br925      Br  0.55902188  0.39233219  0.53713873    -0.01500
Br926      Br  0.50790764  0.33821016  0.61235710    -0.01600
Br927      Br  0.59979669  0.51368291  0.64600104    -0.01600
Br928      Br  0.55003170  0.45968498  0.72197710    -0.01600
C929        C  0.33895110  0.95832750  0.88362988    -0.02700
C930        C  0.34026489  0.96774062  0.84124319     0.07000
C931        C  0.35440477  0.00384234  0.83074417    -0.02800
C932        C  0.36854041  0.03038260  0.86208126    -0.02800
C933        C  0.36904790  0.02102916  0.90418236     0.07100
C934        C  0.35171934  0.98473889  0.91498362    -0.03000
Br935      Br  0.34392238  0.97115179  0.97301225    -0.01500
Br936      Br  0.32483051  0.91016012  0.89856396    -0.01600
Br937      Br  0.38809254  0.07933688  0.84671475    -0.01600
Br938      Br  0.35730707  0.01720562  0.77283604    -0.01600
C939        C  0.38493355  0.98448253  0.58566967    -0.02700
C940        C  0.37640699  0.01197475  0.58405875     0.07000
C941        C  0.35136826  0.01135345  0.61310007    -0.02800
C942        C  0.33659999  0.98477311  0.64435971    -0.02800
C943        C  0.34810399  0.95972560  0.64835149     0.07100
C944        C  0.37102137  0.95888130  0.61751335    -0.03000
Br945      Br  0.38314955  0.92179333  0.61768023    -0.01500
Br946      Br  0.41585461  0.98070677  0.54452633    -0.01600
Br947      Br  0.30133064  0.98367569  0.68203507    -0.01600
Br948      Br  0.33936458  0.04853434  0.61326329    -0.01600
C949        C  0.43292681  0.17886432  0.63723517    -0.02700
C950        C  0.42341244  0.18216674  0.59606425     0.07000
C951        C  0.41400093  0.20802723  0.58677157    -0.02800
C952        C  0.41497312  0.23116936  0.61832149    -0.02800
C953        C  0.42585549  0.22883971  0.65914888     0.07100
C954        C  0.43431283  0.20229398  0.66873946    -0.03000
Br955      Br  0.44773928  0.19807775  0.72509231    -0.01500
Br956      Br  0.44519821  0.14299093  0.64991269    -0.01600
Br957      Br  0.40315427  0.26724485  0.60511222    -0.01600
Br958      Br  0.40064350  0.21222849  0.53039896    -0.01600
C959        C  0.45108536  0.23045696  0.91451916    -0.02700
C960        C  0.42648496  0.19353962  0.91586044     0.07000
C961        C  0.39750090  0.17908808  0.88740249    -0.02800
C962        C  0.39691530  0.19971069  0.85365100    -0.02800
C963        C  0.42332269  0.23591163  0.85040938     0.07100
C964        C  0.44895697  0.25156508  0.88261545    -0.03000
Br965      Br  0.48029425  0.30248383  0.88456033    -0.01500
Br966      Br  0.48645245  0.25314343  0.95811998    -0.01600
Br967      Br  0.36135258  0.17726961  0.81038419    -0.01600
Br968      Br  0.35780812  0.13157576  0.89441758    -0.01600
C969        C  0.00162289  0.63482009  0.83045809    -0.02700
C970        C  0.96476110  0.61879861  0.83851686     0.07000
C971        C  0.95303307  0.62095859  0.87899850    -0.02800
C972        C  0.97774276  0.63524020  0.91211446    -0.02800
C973        C  0.01430287  0.64899576  0.90444247     0.07100
C974        C  0.02634824  0.65168603  0.86303004    -0.03000
Br975      Br  0.07669335  0.67757175  0.85128417    -0.01500
Br976      Br  0.01845700  0.63161770  0.77561893    -0.01600
Br977      Br  0.96170003  0.63603827  0.96810250    -0.01600
Br978      Br  0.90294762  0.60141253  0.88994170    -0.01600
C979        C  0.94951888  0.58984453  0.61220769    -0.02700
C980        C  0.95481139  0.61044509  0.64835447     0.07000
C981        C  0.98388127  0.64541520  0.65080833    -0.02800
C982        C  0.00964472  0.65849898  0.61875040    -0.02800
C983        C  0.00587079  0.63655928  0.58417824     0.07100
C984        C  0.97449250  0.60307957  0.57981522    -0.03000
Br985      Br  0.96575060  0.57412709  0.53009732    -0.01500
Br986      Br  0.90911415  0.54219528  0.60822297    -0.01600
Br987      Br  0.05141727  0.70482158  0.62456453    -0.01600
Br988      Br  0.99020731  0.67396371  0.69985694    -0.01600
C989        C  0.74986626  0.52388725  0.66313579    -0.02700
C990        C  0.78712082  0.54172887  0.65736677     0.07000
C991        C  0.80190025  0.55975290  0.61944710    -0.02800
C992        C  0.77965660  0.56037640  0.58784353    -0.02800
C993        C  0.74259096  0.54297268  0.59396587     0.07100
C994        C  0.72769920  0.52424631  0.63133613    -0.03000
Br995      Br  0.67678250  0.49902426  0.63907097    -0.01500
Br996      Br  0.72889410  0.49979444  0.71510567    -0.01600
Br997      Br  0.79961560  0.58274152  0.53481586    -0.01600
Br998      Br  0.85230206  0.58157644  0.60933995    -0.01600
C999        C  0.78968027  0.52952997  0.88333567    -0.02700
C1000       C  0.79212323  0.54643853  0.84495128     0.07000
C1001       C  0.77147989  0.56264492  0.83798099    -0.02800
C1002       C  0.74816368  0.56162220  0.86927575    -0.02800
C1003       C  0.74527373  0.54416768  0.90744782     0.07100
C1004       C  0.76631218  0.52838925  0.91452209    -0.03000
Br1005     Br  0.76398260  0.50605778  0.96747470    -0.01500
Br1006     Br  0.81890656  0.50844388  0.89347755    -0.01600
Br1007     Br  0.71886998  0.58249195  0.85883482    -0.01600
Br1008     Br  0.77345427  0.58426947  0.78458235    -0.01600
C1009       C  0.54906567  0.12269158  0.83178879    -0.02700
C1010       C  0.58526740  0.13455633  0.84017452     0.07000
C1011       C  0.59958512  0.15046258  0.87951536    -0.02800
C1012       C  0.57703494  0.15058815  0.91135643    -0.02800
C1013       C  0.54042934  0.13640365  0.90349586     0.07100
C1014       C  0.52706846  0.12408893  0.86308391    -0.03000
Br1015     Br  0.47849327  0.11004413  0.85030146    -0.01500
Br1016     Br  0.52929893  0.10592319  0.77686654    -0.01600
Br1017     Br  0.59590823  0.16784506  0.96649846    -0.01600
Br1018     Br  0.64965253  0.17113072  0.89099978    -0.01600
C1019       C  0.52222775  0.10225386  0.62282651    -0.02700
C1020       C  0.53569650  0.13129977  0.59517460     0.07000
C1021       C  0.57073418  0.15973042  0.60092898    -0.02800
C1022       C  0.59325994  0.15725438  0.63107927    -0.02800
C1023       C  0.58045433  0.12666549  0.65683315     0.07100
C1024       C  0.54442440  0.09928361  0.65252110    -0.03000
Br1025     Br  0.52392017  0.05681975  0.68669880    -0.01500
Br1026     Br  0.47206356  0.06769143  0.62289996    -0.01600
Br1027     Br  0.64246225  0.19476389  0.63368359    -0.01600
Br1028     Br  0.58801994  0.20221679  0.56771427    -0.01600
C1029       C  0.76749443  0.20417377  0.91428392    -0.02700
C1030       C  0.79960448  0.23511161  0.90386085     0.07000
C1031       C  0.81053621  0.24213346  0.86182061    -0.02800
C1032       C  0.78783460  0.21989427  0.82994760    -0.02800
C1033       C  0.75512094  0.18962664  0.84035387     0.07100
C1034       C  0.74627361  0.18048756  0.88264652    -0.03000
Br1035     Br  0.70601603  0.13497367  0.89726016    -0.01500
Br1036     Br  0.75213897  0.19455147  0.97180503    -0.01600
Br1037     Br  0.80240196  0.22968329  0.77228369    -0.01600
Br1038     Br  0.85636360  0.28229976  0.84813545    -0.01600
C1039       C  0.78812882  0.24806960  0.62560821    -0.02700
C1040       C  0.79925181  0.23356383  0.59324763     0.07000
C1041       C  0.78931024  0.19720495  0.59486570    -0.02800
C1042       C  0.76620451  0.17514916  0.62660644    -0.02800
C1043       C  0.75263537  0.18916510  0.65674241     0.07100
C1044       C  0.76440378  0.22599342  0.65647366    -0.03000
Br1045     Br  0.74906569  0.24743150  0.69891555    -0.01500
Br1046     Br  0.80699164  0.29890467  0.62992508    -0.01600
Br1047     Br  0.75182968  0.12532265  0.62677820    -0.01600
Br1048     Br  0.80604263  0.17665592  0.55322461    -0.01600
C1049       C  0.88571682  0.44363275  0.91424349    -0.02700
C1050       C  0.86618417  0.40620295  0.90981862     0.07000
C1051       C  0.84545651  0.39094318  0.87338681    -0.02800
C1052       C  0.84521784  0.41289652  0.84127486    -0.02800
C1053       C  0.86554687  0.45017185  0.84533211     0.07100
C1054       C  0.88593696  0.46548075  0.88175968    -0.03000
Br1055     Br  0.91388743  0.51657164  0.88760523    -0.01500
Br1056     Br  0.91039074  0.46545186  0.96589695    -0.01600
Br1057     Br  0.81901787  0.39174059  0.79026435    -0.01600
Br1058     Br  0.81833706  0.33999631  0.86598925    -0.01600
C1059       C  0.84116562  0.41620812  0.58968425    -0.02700
C1060       C  0.86133226  0.39920844  0.59533485     0.07000
C1061       C  0.87944840  0.40345351  0.63339769    -0.02800
C1062       C  0.87834340  0.42519062  0.66513960    -0.02800
C1063       C  0.85955195  0.44340419  0.65890650     0.07100
C1064       C  0.83996179  0.43801057  0.62167044    -0.03000
Br1065     Br  0.81288241  0.46171686  0.61345929    -0.01500
Br1066     Br  0.81775606  0.41234497  0.53691446    -0.01600
Br1067     Br  0.90164318  0.42882981  0.71803646    -0.01600
Br1068     Br  0.90585775  0.37939105  0.64264995    -0.01600
C1069       C  0.60312520  0.00013582  0.91517343    -0.02700
C1070       C  0.61277395  0.97333354  0.91659751     0.07000
C1071       C  0.63954558  0.97610954  0.88878095    -0.02800
C1072       C  0.65223843  0.00178043  0.85639760    -0.02800
C1073       C  0.63838510  0.02491063  0.85164513     0.07100
C1074       C  0.61581762  0.02551379  0.88307932    -0.03000
Br1075     Br  0.60311121  0.06239987  0.88379836    -0.01500
Br1076     Br  0.57335417  0.00418918  0.95779531    -0.01600
Br1077     Br  0.68810942  0.00433934  0.81848432    -0.01600
Br1078     Br  0.65915967  0.94507973  0.89385302    -0.01600
C1079       C  0.62046904  0.95712297  0.63557912    -0.02700
C1080       C  0.62089273  0.96751894  0.59376445     0.07000
C1081       C  0.63614586  0.00389740  0.58424225    -0.02800
C1082       C  0.64527391  0.02902734  0.61647292    -0.02800
C1083       C  0.64253077  0.01834958  0.65843262     0.07100
C1084       C  0.63130069  0.98260920  0.66793426    -0.03000
Br1085     Br  0.62864531  0.96829887  0.72542176    -0.01500
Br1086     Br  0.60395645  0.90801572  0.64867409    -0.01600
Br1087     Br  0.65718819  0.07702050  0.60320471    -0.01600
Br1088     Br  0.64641452  0.01948005  0.52705760    -0.01600
C1089       C  0.41483676  0.83080867  0.90380073    -0.02700
C1090       C  0.44988706  0.85949508  0.90864216     0.07000
C1091       C  0.46255567  0.88894012  0.88163753    -0.02800
C1092       C  0.43999147  0.89091252  0.85175609    -0.02800
C1093       C  0.40434222  0.86282857  0.84779434     0.07100
C1094       C  0.39187963  0.83275534  0.87409732    -0.03000
Br1095     Br  0.34259134  0.79529315  0.87245822    -0.01500
Br1096     Br  0.39777247  0.78885804  0.93802934    -0.01600
Br1097     Br  0.45939789  0.93248996  0.81606130    -0.01600
Br1098     Br  0.51196422  0.92581024  0.88294768    -0.01600
C1099       C  0.43839152  0.86531839  0.67348744    -0.02700
C1100       C  0.40249861  0.85423154  0.66414216     0.07000
C1101       C  0.38993006  0.84340140  0.62285283    -0.02800
C1102       C  0.41346602  0.84547264  0.59106764    -0.02800
C1103       C  0.44969172  0.85830259  0.60010758     0.07100
C1104       C  0.46205020  0.86830250  0.64149428    -0.03000
Br1105     Br  0.51161275  0.88671131  0.65461825    -0.01500
Br1106     Br  0.45499726  0.87465486  0.73066597    -0.01600
Br1107     Br  0.39674562  0.83423796  0.53415995    -0.01600
Br1108     Br  0.34121332  0.82819715  0.60848040    -0.01600
C1109       C  0.08663225  0.56685949  0.86684535    -0.02700
C1110       C  0.10936518  0.57618057  0.90207697     0.07000
C1111       C  0.13288541  0.56265133  0.90553301    -0.02800
C1112       C  0.13461298  0.54129538  0.87342862    -0.02800
C1113       C  0.11144751  0.53157126  0.83869552     0.07100
C1114       C  0.08713148  0.54411983  0.83585161    -0.03000
Br1115     Br  0.05445945  0.53106158  0.78904493    -0.01500
Br1116     Br  0.05496477  0.58562017  0.85948802    -0.01600
Br1117     Br  0.16738319  0.52363644  0.87887002    -0.01600
Br1118     Br  0.16059591  0.57012540  0.95584889    -0.01600
C1119       C  0.10056503  0.51546570  0.61163797    -0.02700
C1120       C  0.11093891  0.52829195  0.65276972     0.07000
C1121       C  0.12011853  0.56353092  0.66253351    -0.02800
C1122       C  0.11880685  0.58568959  0.63134158    -0.02800
C1123       C  0.11184139  0.57398770  0.58936130     0.07100
C1124       C  0.10263668  0.53865730  0.57966272    -0.03000
Br1125     Br  0.09318417  0.52187820  0.52250349    -0.01500
Br1126     Br  0.08187113  0.46578597  0.59939661    -0.01600
Br1127     Br  0.12176602  0.62996050  0.64709972    -0.01600
Br1128     Br  0.13272887  0.58086122  0.71920060    -0.01600
C1129       C  0.00821509  0.38064763  0.91646678    -0.02700
C1130       C  0.97738643  0.34603506  0.91523148     0.07000
C1131       C  0.97599699  0.32136385  0.88485405    -0.02800
C1132       C  0.00203897  0.33281848  0.85297066    -0.02800
C1133       C  0.02920532  0.36856840  0.85123029     0.07100
C1134       C  0.03375645  0.39151436  0.88460499    -0.03000
Br1135     Br  0.07547073  0.43849198  0.88603971    -0.01500
Br1136     Br  0.01709203  0.41462398  0.96106728    -0.01600
Br1137     Br  0.00021696  0.30014432  0.81079448    -0.01600
Br1138     Br  0.93819218  0.27240328  0.88448744    -0.01600
C1139       C  0.95474455  0.32668488  0.63534384    -0.02700
C1140       C  0.96671911  0.33425069  0.59374258     0.07000
C1141       C  0.00293830  0.34741042  0.58474441    -0.02800
C1142       C  0.02788280  0.35850227  0.61750221    -0.02800
C1143       C  0.01644123  0.35698843  0.65901998     0.07100
C1144       C  0.97970351  0.33944150  0.66813307    -0.03000
Br1145     Br  0.96367527  0.33458473  0.72532005    -0.01500
Br1146     Br  0.90447177  0.29868119  0.64711085    -0.01600
Br1147     Br  0.07778787  0.37811904  0.60545391    -0.01600
Br1148     Br  0.01795339  0.34892124  0.52775798    -0.01600
C1149       C  0.35406937  0.32522791  0.87739459    -0.02700
C1150       C  0.35729680  0.33833738  0.83644797     0.07000
C1151       C  0.34627595  0.36297318  0.82714988    -0.02800
C1152       C  0.33562405  0.37736026  0.85952229    -0.02800
C1153       C  0.33537715  0.36665313  0.90099543     0.07100
C1154       C  0.34273300  0.33925288  0.90972781    -0.03000
Br1155     Br  0.33844000  0.32200871  0.96613972    -0.01500
Br1156     Br  0.36866007  0.29101707  0.88985018    -0.01600
Br1157     Br  0.32458894  0.41408239  0.84755232    -0.01600
Br1158     Br  0.34794991  0.37863172  0.77021670    -0.01600
C1159       C  0.39056625  0.35747605  0.61436458    -0.02700
C1160       C  0.36741190  0.33816073  0.64725477     0.07000
C1161       C  0.33186890  0.33078286  0.64618648    -0.02800
C1162       C  0.32064213  0.34567162  0.61440061    -0.02800
C1163       C  0.34531227  0.36854311  0.58411456     0.07100
C1164       C  0.37955830  0.37203014  0.58268331    -0.03000
Br1165     Br  0.41222428  0.39642814  0.53703118    -0.01500
Br1166     Br  0.43850002  0.36550515  0.61353419    -0.01600
Br1167     Br  0.27203422  0.33537987  0.61383062    -0.01600
Br1168     Br  0.29951346  0.30267919  0.69004183    -0.01600
C1169       C  0.25497246  0.46038297  0.86526629    -0.02700
C1170       C  0.24113822  0.44111271  0.90279327     0.07000
C1171       C  0.20374469  0.41937796  0.90706731    -0.02800
C1172       C  0.18079948  0.41845020  0.87520074    -0.02800
C1173       C  0.19481739  0.44001221  0.83938490     0.07100
C1174       C  0.23200183  0.46036646  0.83417000    -0.03000
Br1175     Br  0.25169091  0.48644302  0.78285565    -0.01500
Br1176     Br  0.30524294  0.48413760  0.85391627    -0.01600
Br1177     Br  0.12997919  0.38796810  0.88130407    -0.01600
Br1178     Br  0.18309797  0.39134966  0.95690351    -0.01600
C1179       C  0.21888334  0.45816728  0.58438178    -0.02700
C1180       C  0.24039546  0.44273539  0.59129968     0.07000
C1181       C  0.23918249  0.42736690  0.63055572    -0.02800
C1182       C  0.21422264  0.42415332  0.66094213    -0.02800
C1183       C  0.19221003  0.43876396  0.65353686     0.07100
C1184       C  0.19566723  0.45696034  0.61588124    -0.03000
Br1185     Br  0.16916663  0.48108837  0.60768443    -0.01500
Br1186     Br  0.22079651  0.48133199  0.53207273    -0.01600
Br1187     Br  0.21208044  0.40207400  0.71399603    -0.01600
Br1188     Br  0.27510509  0.41560242  0.64513417    -0.01600
C1189       C  0.65481901  0.64807552  0.90271591    -0.02700
C1190       C  0.64759813  0.61271603  0.90034223     0.07000
C1191       C  0.63197908  0.59230973  0.86415350    -0.02800
C1192       C  0.62204008  0.60659126  0.83122032    -0.02800
C1193       C  0.62464309  0.64017369  0.83593008     0.07100
C1194       C  0.64171274  0.66126950  0.87143386    -0.03000
Br1195     Br  0.64266630  0.70561519  0.88034951    -0.01500
Br1196     Br  0.68065622  0.67745447  0.94991160    -0.01600
Br1197     Br  0.60317226  0.57890232  0.78041016    -0.01600
Br1198     Br  0.62219252  0.54384537  0.86053852    -0.01600
C1199       C  0.65197466  0.64189916  0.66211176    -0.02700
C1200       C  0.62593468  0.65145914  0.65442357     0.07000
C1201       C  0.61227834  0.64865551  0.61385447    -0.02800
C1202       C  0.62269467  0.63387921  0.58163577    -0.02800
C1203       C  0.64592219  0.62086176  0.59027963     0.07100
C1204       C  0.66172576  0.62614392  0.63010638    -0.03000
Br1205     Br  0.69352593  0.60837377  0.64209597    -0.01500
Br1206     Br  0.67282785  0.64888267  0.71705275    -0.01600
Br1207     Br  0.60358158  0.62981110  0.52603117    -0.01600
Br1208     Br  0.57612865  0.66113535  0.60350292    -0.01600
C1209       C  0.44660247  0.59628822  0.62613238    -0.02700
C1210       C  0.45761965  0.58144960  0.65793190     0.07000
C1211       C  0.44480736  0.54449225  0.65798683    -0.02800
C1212       C  0.42186739  0.52272813  0.62602511    -0.02800
C1213       C  0.41134636  0.53762946  0.59377786     0.07100
C1214       C  0.42377660  0.57447620  0.59396595    -0.03000
Br1215     Br  0.41191646  0.59561684  0.54829334    -0.01500
Br1216     Br  0.46432681  0.64682082  0.62507041    -0.01600
Br1217     Br  0.40432052  0.47221377  0.62729907    -0.01600
Br1218     Br  0.45738796  0.52308095  0.70287658    -0.01600
C1219       C  0.42830730  0.58361579  0.85281245    -0.02700
C1220       C  0.46179233  0.58657781  0.84611693     0.07000
C1221       C  0.47363237  0.56941615  0.87383897    -0.02800
C1222       C  0.45091965  0.54689343  0.90535331    -0.02800
C1223       C  0.41609876  0.54150367  0.90985000     0.07100
C1224       C  0.40630120  0.56256736  0.88573116    -0.03000
Br1225     Br  0.36405381  0.56499661  0.89811174    -0.01500
Br1226     Br  0.41106730  0.60637388  0.81520058    -0.01600
Br1227     Br  0.46954673  0.52676011  0.94514032    -0.01600
Br1228     Br  0.52177726  0.57810276  0.87067983    -0.01600
C1229       C  0.53235222  0.76457920  0.66330443    -0.02700
C1230       C  0.55809289  0.75401470  0.66141633     0.07000
C1231       C  0.58410540  0.76754550  0.62965746    -0.02800
C1232       C  0.58279213  0.78947541  0.59807653    -0.02800
C1233       C  0.55524629  0.79807143  0.59808642     0.07100
C1234       C  0.53039018  0.78583052  0.63165563    -0.03000
Br1235     Br  0.49301450  0.79759814  0.63614519    -0.01500
Br1236     Br  0.50065122  0.75153558  0.71103203    -0.01600
Br1237     Br  0.61790738  0.80520082  0.55386106    -0.01600
Br1238     Br  0.62095966  0.75506940  0.62823680    -0.01600
C1239       C  0.55124327  0.74040309  0.88391113    -0.02700
C1240       C  0.56328930  0.75389424  0.84358638     0.07000
C1241       C  0.57430912  0.78966607  0.83463568    -0.02800
C1242       C  0.57305901  0.81191529  0.86606096    -0.02800
C1243       C  0.56101358  0.79843372  0.90662847     0.07100
C1244       C  0.55054838  0.76265219  0.91550380    -0.03000
Br1245     Br  0.53538866  0.74382333  0.97116131    -0.01500
Br1246     Br  0.53392656  0.69074412  0.89505619    -0.01600
Br1247     Br  0.58495357  0.85977894  0.85244877    -0.01600
Br1248     Br  0.58942777  0.80751654  0.77868177    -0.01600
loop_ 
_geom_bond_atom_site_label_1 
_geom_bond_atom_site_label_2 
_geom_bond_distance 
_geom_bond_site_symmetry_2 
_ccdc_geom_bond_type 
Fe1          O17   2.041       .  S
Fe1           O7   2.062       .  S
Fe1          O14   2.084       .  S
Fe1           O6   2.024       .  S
Fe1          O12   1.938       .  S
Fe2           O5   2.040       .  S
Fe2           O9   2.093       .  S
Fe2          O13   2.061       .  S
Fe2          O18   2.081       .  S
Fe2          O12   1.940       .  S
Fe3          O21   2.104       .  S
Fe3           O8   2.082       .  S
Fe3          O15   2.075       .  S
Fe3           O4   2.097       .  S
Fe3          O12   1.954       .  S
O4           C11   1.274       .  A
O5           C19   1.269       .  A
O6           C11   1.262       .  A
O7           C10   1.269       .  A
O8           C20   1.269       .  A
O9           C22   1.271       .  A
C10          O15   1.272       .  A
C10         C576   1.470       .  S
C11         C569   1.477       .  S
O13          C16   1.270       .  A
O14          C16   1.273       .  A
C16         C596   1.486       .  S
O17          C22   1.263       .  A
O18          C20   1.272       .  A
C19          O21   1.277       .  A
C19         C606   1.482       .  S
C20         C616   1.507       .  S
C22         C586   1.477       .  S
Fe23         O39   2.072   1_556  S
Fe23         O29   2.041   1_556  S
Fe23        O660   2.058       .  S
Fe23        O652   2.066       .  S
Fe23        O658   1.952       .  S
Fe24         O35   2.081       .  S
Fe24         O40   2.076       .  S
Fe24        O651   2.063       .  S
Fe24        O655   2.067       .  S
Fe24         O34   1.963       .  S
Fe25         O30   2.089       .  S
Fe25         O26   2.062       .  S
Fe25        O667   2.072       .  S
Fe25        O661   2.111       .  S
Fe25         O34   1.968       .  S
O26          C33   1.267       .  A
O27        Fe648   2.066   1_554  S
O27          C41   1.269       .  A
O28        Fe647   2.067       .  S
O28          C33   1.268       .  A
O29          C32   1.267       .  A
O30          C42   1.275       .  A
O31        Fe648   2.063   1_554  S
O31          C44   1.269       .  A
C32          O37   1.273       .  A
C32         C539   1.488       .  S
C33         C529   1.471       .  S
O34        Fe647   1.945       .  S
O35          C38   1.269       .  A
O36        Fe647   2.055       .  S
O36          C38   1.267       .  A
O37        Fe649   2.094   1_554  S
C38         C599   1.495       .  S
O39          C44   1.269       .  A
O40          C42   1.274       .  A
C41          O43   1.271       .  A
C41         C556   1.486       .  S
C42         C546   1.496       .  S
O43        Fe649   2.072   1_554  S
C44         C589   1.476       .  S
Fe45         O61   2.065       .  S
Fe45         O51   2.035       .  S
Fe45         O58   2.042       .  S
Fe45         O50   2.043       .  S
Fe45         O56   1.974       .  S
Fe46         O49   2.069       .  S
Fe46         O53   2.070       .  S
Fe46         O57   2.074       .  S
Fe46         O62   2.067       .  S
Fe46         O56   1.982       .  S
Fe47         O65   2.071       .  S
Fe47         O52   2.077       .  S
Fe47         O59   2.080       .  S
Fe47         O48   2.071       .  S
Fe47         O56   1.992       .  S
O48          C55   1.268       .  A
O49          C63   1.270       .  A
O50          C55   1.266       .  A
O51          C54   1.263       .  A
O52          C64   1.270       .  A
O53          C66   1.269       .  A
C54          O59   1.270       .  A
C54         C519   1.467       .  S
C55         C509   1.468       .  S
O57          C60   1.269       .  A
O58          C60   1.264       .  A
C60         C489   1.482       .  S
O61          C66   1.268       .  A
O62          C64   1.269       .  A
C63          O65   1.270       .  A
C63         C559   1.478       .  S
C64         C549   1.486       .  S
C66         C496   1.477       .  S
Fe67         O83   2.056       .  S
Fe67         O73   2.058       .  S
Fe67        O704   2.066   1_554  S
Fe67        O696   2.037   1_554  S
Fe67        O702   1.954       .  S
Fe68         O79   2.063       .  S
Fe68         O84   2.065       .  S
Fe68        O695   2.035       .  S
Fe68        O699   2.096       .  S
Fe68         O78   1.958       .  S
Fe69         O74   2.086       .  S
Fe69         O70   2.103       .  S
Fe69        O711   2.094       .  S
Fe69        O705   2.069       .  S
Fe69         O78   1.966       .  S
O70          C77   1.275       .  A
O71        Fe692   2.046   1_554  S
O71          C85   1.268       .  A
O72        Fe691   2.026       .  S
O72          C77   1.261       .  A
O73          C76   1.265       .  A
O74          C86   1.273       .  A
O75        Fe692   2.098   1_554  S
O75          C88   1.275       .  A
C76          O81   1.266       .  A
C76         C456   1.475       .  S
C77         C446   1.489       .  S
O78        Fe691   1.946       .  S
O79          C82   1.268       .  A
O80        Fe691   2.079       .  S
O80          C82   1.271       .  A
O81        Fe693   2.068       .  S
C82         C466   1.483       .  S
O83          C88   1.268       .  A
O84          C86   1.265       .  A
C85          O87   1.276       .  A
C85         C609   1.496       .  S
C86         C619   1.504       .  S
O87        Fe693   2.091       .  S
C88         C479   1.483       .  S
Fe89        O105   2.052       .  S
Fe89         O95   2.069       .  S
Fe89        O726   2.061   1_554  S
Fe89        O718   2.036   1_554  S
Fe89        O724   1.966       .  S
Fe90        O101   2.060       .  S
Fe90        O106   2.058       .  S
Fe90        O717   2.045       .  S
Fe90        O721   2.072       .  S
Fe90        O100   1.981       .  S
Fe91         O96   2.063       .  S
Fe91         O92   2.090       .  S
Fe91        O733   2.076       .  S
Fe91        O727   2.047       .  S
Fe91        O100   1.988       .  S
O92          C99   1.272       .  A
O93        Fe714   2.048   1_554  S
O93         C107   1.266       .  A
O94        Fe713   2.032       .  S
O94          C99   1.262       .  A
O95          C98   1.270       .  A
O96         C108   1.268       .  A
O97        Fe714   2.075   1_554  S
O97         C110   1.269       .  A
C98         O103   1.263       .  A
C98         C516   1.466       .  S
C99         C506   1.488       .  S
O100       Fe713   1.962       .  S
O101        C104   1.267       .  A
O102       Fe713   2.066       .  S
O102        C104   1.269       .  A
O103       Fe715   2.051   1_554  S
C104        C426   1.487       .  S
O105        C110   1.266       .  A
O106        C108   1.267       .  A
C107        O109   1.270       .  A
C107        C416   1.486       .  S
C108        C406   1.466       .  S
O109       Fe715   2.075   1_554  S
C110        C436   1.481       .  S
Fe111       O127   2.051       .  S
Fe111       O117   2.063       .  S
Fe111       O124   2.090       .  S
Fe111       O116   2.039       .  S
Fe111       O122   1.941       .  S
Fe112       O115   2.045       .  S
Fe112       O119   2.092       .  S
Fe112       O123   2.058       .  S
Fe112       O128   2.084       .  S
Fe112       O122   1.955       .  S
Fe113       O131   2.097       .  S
Fe113       O118   2.047       .  S
Fe113       O125   2.067       .  S
Fe113       O114   2.094       .  S
Fe113       O122   1.961       .  S
O114        C121   1.275       .  A
O115        C129   1.267       .  A
O116        C121   1.269       .  A
O117        C120   1.266       .  A
O118        C130   1.265       .  A
O119        C132   1.270       .  A
C120        O125   1.269       .  A
C120        C459   1.472       .  S
C121        C449   1.487       .  S
O123        C126   1.268       .  A
O124        C126   1.275       .  A
C126        C386   1.486       .  S
O127        C132   1.264       .  A
O128        C130   1.272       .  A
C129        O131   1.276       .  A
C129        C419   1.485       .  S
C130        C409   1.471       .  S
C132        C399   1.495       .  S
Fe133       O149   2.054       .  S
Fe133       O139   2.042       .  S
Fe133       O146   2.055       .  S
Fe133       O138   2.046       .  S
Fe133       O144   1.973       .  S
Fe134       O137   2.058       .  S
Fe134       O141   2.063       .  S
Fe134       O145   2.066       .  S
Fe134       O150   2.050       .  S
Fe134       O144   1.983       .  S
Fe135       O153   2.073       .  S
Fe135       O140   2.070       .  S
Fe135       O147   2.069       .  S
Fe135       O136   2.081       .  S
Fe135       O144   1.989       .  S
O136        C143   1.271       .  A
O137        C151   1.267       .  A
O138        C143   1.265       .  A
O139        C142   1.265       .  A
O140        C152   1.270       .  A
O141        C154   1.266       .  A
C142        O147   1.268       .  A
C142        C356   1.466       .  S
C143        C346   1.476       .  S
O145        C148   1.269       .  A
O146        C148   1.266       .  A
C148        C429   1.474       .  S
O149        C154   1.266       .  A
O150        C152   1.267       .  A
C151        O153   1.270       .  A
C151        C366   1.477       .  S
C152        C376   1.470       .  S
C154        C439   1.479       .  S
Fe155       O171   2.085   1_556  S
Fe155       O161   2.033   1_556  S
Fe155       O792   2.048       .  S
Fe155       O784   2.088       .  S
Fe155       O790   1.949       .  S
Fe156       O167   2.089       .  S
Fe156       O172   2.064       .  S
Fe156       O783   2.067       .  S
Fe156       O787   2.076       .  S
Fe156       O166   1.964       .  S
Fe157       O162   2.092       .  S
Fe157       O158   2.085       .  S
Fe157       O799   2.074       .  S
Fe157       O793   2.098       .  S
Fe157       O166   1.973       .  S
O158        C165   1.273       .  A
O159       Fe780   2.075       .  S
O159        C173   1.270       .  A
O160       Fe779   2.075       .  S
O160        C165   1.272       .  A
O161        C164   1.262       .  A
O162        C174   1.274       .  A
O163       Fe780   2.073       .  S
O163        C176   1.270       .  A
C164        O169   1.273       .  A
C164        C316   1.496       .  S
C165        C309   1.487       .  S
O166       Fe779   1.948       .  S
O167        C170   1.271       .  A
O168       Fe779   2.056       .  S
O168        C170   1.267       .  A
O169       Fe781   2.102       .  S
C170        C389   1.479       .  S
O171        C176   1.274       .  A
O172        C174   1.272       .  A
C173        O175   1.271       .  A
C173        C326   1.477       .  S
C174        C336   1.495       .  S
O175       Fe781   2.074       .  S
C176        C396   1.492       .  S
Fe177       O193   2.073       .  S
Fe177       O183   2.047       .  S
Fe177       O814   2.053   1_554  S
Fe177       O806   2.055   1_554  S
Fe177       O812   1.973       .  S
Fe178       O189   2.059       .  S
Fe178       O194   2.058       .  S
Fe178       O805   2.057       .  S
Fe178       O809   2.057       .  S
Fe178       O188   1.978       .  S
Fe179       O184   2.059       .  S
Fe179       O180   2.071       .  S
Fe179       O821   2.070       .  S
Fe179       O815   2.068       .  S
Fe179       O188   1.987       .  S
O180        C187   1.270       .  A
O181       Fe802   2.063       .  S
O181        C195   1.269       .  A
O182       Fe801   2.053       .  S
O182        C187   1.268       .  A
O183        C186   1.265       .  A
O184        C196   1.266       .  A
O185       Fe802   2.063       .  S
O185        C198   1.269       .  A
C186        O191   1.269       .  A
C186        C579   1.475       .  S
C187        C566   1.469       .  S
O188       Fe801   1.972       .  S
O189        C192   1.266       .  A
O190       Fe801   2.049       .  S
O190        C192   1.264       .  A
O191       Fe803   2.076   1_554  S
C192        C286   1.477       .  S
O193        C198   1.271       .  A
O194        C196   1.267       .  A
C195        O197   1.269       .  A
C195        C369   1.472       .  S
C196        C379   1.472       .  S
O197       Fe803   2.064   1_554  S
C198        C299   1.480       .  S
Fe199       O215   2.045       .  S
Fe199       O205   2.045       .  S
Fe199       O212   2.049       .  S
Fe199       O204   2.034       .  S
Fe199       O210   1.974       .  S
Fe200       O203   2.063       .  S
Fe200       O207   2.086       .  S
Fe200       O211   2.064       .  S
Fe200       O216   2.071       .  S
Fe200       O210   1.979       .  S
Fe201       O219   2.080       .  S
Fe201       O206   2.073       .  S
Fe201       O213   2.079       .  S
Fe201       O202   2.076       .  S
Fe201       O210   1.989       .  S
O202        C209   1.268       .  A
O203        C217   1.269       .  A
O204        C209   1.262       .  A
O205        C208   1.267       .  A
O206        C218   1.270       .  A
O207        C220   1.272       .  A
C208        O213   1.271       .  A
C208        C536   1.471       .  S
C209        C526   1.468       .  S
O211        C214   1.268       .  A
O212        C214   1.265       .  A
C214        C289   1.472       .  S
O215        C220   1.264       .  A
O216        C218   1.271       .  A
C217        O219   1.271       .  A
C217        C329   1.480       .  S
C218        C339   1.489       .  S
C220        C296   1.483       .  S
Fe221       O237   2.057   1_556  S
Fe221       O227   2.020   1_556  S
Fe221       O858   2.041       .  S
Fe221       O850   2.076       .  S
Fe221       O856   1.953       .  S
Fe222       O233   2.082       .  S
Fe222       O238   2.052       .  S
Fe222       O849   2.071       .  S
Fe222       O853   2.082       .  S
Fe222       O232   1.957       .  S
Fe223       O228   2.098       .  S
Fe223       O224   2.064       .  S
Fe223       O865   2.080       .  S
Fe223       O859   2.095       .  S
Fe223       O232   1.972       .  S
O224        C231   1.269       .  A
O225       Fe846   2.066   1_554  S
O225        C239   1.265       .  A
O226       Fe845   2.078       .  S
O226        C231   1.272       .  A
O227        C230   1.259       .  A
O228        C240   1.275       .  A
O229       Fe846   2.081   1_554  S
O229        C242   1.272       .  A
C230        O235   1.272       .  A
C230        C359   1.477       .  S
C231        C349   1.473       .  S
O232       Fe845   1.955       .  S
O233        C236   1.272       .  A
O234       Fe845   2.044       .  S
O234        C236   1.266       .  A
O235       Fe847   2.097       .  S
C236        C486   1.492       .  S
O237        C242   1.266       .  A
O238        C240   1.268       .  A
C239        O241   1.275       .  A
C239        C279   1.514       .  S
C240        C269   1.496       .  S
O241       Fe847   2.091       .  S
C242        C499   1.485       .  S
Fe243       O259   2.085       .  S
Fe243       O249   2.039       .  S
Fe243       O256   2.041       .  S
Fe243       O248   2.057       .  S
Fe243       O254   1.953       .  S
Fe244       O247   2.072       .  S
Fe244       O251   2.071       .  S
Fe244       O255   2.085       .  S
Fe244       O260   2.055       .  S
Fe244       O254   1.962       .  S
Fe245       O263   2.083       .  S
Fe245       O250   2.113       .  S
Fe245       O257   2.105       .  S
Fe245       O246   2.094       .  S
Fe245       O254   1.960       .  S
O246        C253   1.275       .  A
O247        C261   1.267       .  A
O248        C253   1.265       .  A
O249        C252   1.267       .  A
O250        C262   1.280       .  A
O251        C264   1.271       .  A
C252        O257   1.277       .  A
C252        C319   1.496       .  S
C253        C306   1.481       .  S
O255        C258   1.269       .  A
O256        C258   1.262       .  A
C258        C469   1.483       .  S
O259        C264   1.274       .  A
O260        C262   1.271       .  A
C261        O263   1.270       .  A
C261        C276   1.508       .  S
C262        C266   1.490       .  S
C264        C476   1.486       .  S
C265        C266   1.413       .  A
C265        C270   1.409       .  A
C265       Br272   1.935       .  S
C266        C267   1.410       .  A
C267        C268   1.415       .  A
C267       Br274   1.925       .  S
C268        C269   1.418       .  A
C268       Br273   1.932       .  S
C269        C270   1.417       .  A
C270       Br271   1.937       .  S
C275        C276   1.419       .  A
C275        C280   1.417       .  A
C275       Br282   1.936       .  S
C276        C277   1.421       .  A
C277        C278   1.413       .  A
C277       Br284   1.945       .  S
C278        C279   1.429       .  A
C278       Br283   1.947       .  S
C279        C280   1.422       .  A
C280       Br281   1.936       .  S
C285        C286   1.415       .  A
C285        C290   1.405       .  A
C285       Br292   1.936       .  S
C286        C287   1.414       .  A
C287        C288   1.406       .  A
C287       Br294   1.934       .  S
C288        C289   1.409       .  A
C288       Br293   1.932       .  S
C289        C290   1.410       .  A
C290       Br291   1.933       .  S
C295        C296   1.411       .  A
C295        C300   1.410       .  A
C295       Br302   1.932       .  S
C296        C297   1.416       .  A
C297        C298   1.408       .  A
C297       Br304   1.935       .  S
C298        C299   1.409       .  A
C298       Br303   1.934       .  S
C299        C300   1.413       .  A
C300       Br301   1.932       .  S
C305        C306   1.408       .  A
C305        C310   1.407       .  A
C305       Br312   1.929       .  S
C306        C307   1.412   1_565  A
C307        C308   1.412       .  A
C307       Br314   1.925       .  S
C308        C309   1.410       .  A
C308       Br313   1.922       .  S
C309        C310   1.411   1_545  A
C310       Br311   1.925       .  S
C315        C316   1.420   1_565  A
C315        C320   1.405       .  A
C315       Br322   1.944       .  S
C316        C317   1.416       .  A
C317        C318   1.416   1_545  A
C317       Br324   1.932       .  S
C318        C319   1.417       .  A
C318       Br323   1.930       .  S
C319        C320   1.416       .  A
C320       Br321   1.937       .  S
C325        C326   1.408       .  A
C325        C330   1.410       .  A
C325       Br332   1.929       .  S
C326        C327   1.410       .  A
C327        C328   1.410       .  A
C327       Br334   1.930       .  S
C328        C329   1.410       .  A
C328       Br333   1.927       .  S
C329        C330   1.412       .  A
C330       Br331   1.930       .  S
C335        C336   1.416       .  A
C335        C340   1.408       .  A
C335       Br342   1.935       .  S
C336        C337   1.418       .  A
C337        C338   1.414       .  A
C337       Br344   1.930       .  S
C338        C339   1.413       .  A
C338       Br343   1.932       .  S
C339        C340   1.411       .  A
C340       Br341   1.933       .  S
C345        C346   1.414   1_455  A
C345        C350   1.405       .  A
C345       Br352   1.930       .  S
C346        C347   1.409       .  A
C347        C348   1.409       .  A
C347       Br354   1.930       .  S
C348        C349   1.410   1_655  A
C348       Br353   1.926       .  S
C349        C350   1.403       .  A
C350       Br351   1.929       .  S
C355        C356   1.405       .  A
C355        C360   1.397       .  A
C355       Br362   1.935       .  S
C356        C357   1.409       .  A
C357        C358   1.411   1_655  A
C357       Br364   1.928       .  S
C358        C359   1.412       .  A
C358       Br363   1.929       .  S
C359        C360   1.418   1_455  A
C360       Br361   1.940       .  S
C365        C366   1.412       .  A
C365        C370   1.406       .  A
C365       Br372   1.931       .  S
C366        C367   1.411       .  A
C367        C368   1.408       .  A
C367       Br374   1.929       .  S
C368        C369   1.409       .  A
C368       Br373   1.931       .  S
C369        C370   1.408       .  A
C370       Br371   1.930       .  S
C375        C376   1.408       .  A
C375        C380   1.403       .  A
C375       Br382   1.931       .  S
C376        C377   1.410       .  A
C377        C378   1.408       .  A
C377       Br384   1.932       .  S
C378        C379   1.412       .  A
C378       Br383   1.931       .  S
C379        C380   1.410       .  A
C380       Br381   1.933       .  S
C385        C386   1.413       .  A
C385        C390   1.405       .  A
C385       Br392   1.930       .  S
C386        C387   1.415       .  A
C387        C388   1.412       .  A
C387       Br394   1.928       .  S
C388        C389   1.409       .  A
C388       Br393   1.926       .  S
C389        C390   1.405       .  A
C390       Br391   1.923       .  S
C395        C396   1.411       .  A
C395        C400   1.405       .  A
C395       Br402   1.929       .  S
C396        C397   1.414       .  A
C397        C398   1.416       .  A
C397       Br404   1.931       .  S
C398        C399   1.420       .  A
C398       Br403   1.935       .  S
C399        C400   1.418       .  A
C400       Br401   1.941       .  S
C405        C406   1.408       .  A
C405        C410   1.404       .  A
C405       Br412   1.929       .  S
C406        C407   1.406       .  A
C407        C408   1.406       .  A
C407       Br414   1.929       .  S
C408        C409   1.410       .  A
C408       Br413   1.926       .  S
C409        C410   1.409       .  A
C410       Br411   1.930       .  S
C415        C416   1.414       .  A
C415        C420   1.403       .  A
C415       Br422   1.938       .  S
C416        C417   1.416       .  A
C417        C418   1.412       .  A
C417       Br424   1.933       .  S
C418        C419   1.414       .  A
C418       Br423   1.931       .  S
C419        C420   1.416       .  A
C420       Br421   1.941       .  S
C425        C426   1.417       .  A
C425        C430   1.407       .  A
C425       Br432   1.935       .  S
C426        C427   1.417       .  A
C427        C428   1.409       .  A
C427       Br434   1.931       .  S
C428        C429   1.409       .  A
C428       Br433   1.935       .  S
C429        C430   1.408       .  A
C430       Br431   1.934       .  S
C435        C436   1.413       .  A
C435        C440   1.411       .  A
C435       Br442   1.931       .  S
C436        C437   1.410       .  A
C437        C438   1.403       .  A
C437       Br444   1.927       .  S
C438        C439   1.411       .  A
C438       Br443   1.937       .  S
C439        C440   1.414       .  A
C440       Br441   1.934       .  S
C445        C446   1.421   1_545  A
C445        C450   1.401       .  A
C445       Br452   1.944       .  S
C446        C447   1.415       .  A
C447        C448   1.415       .  A
C447       Br454   1.932       .  S
C448        C449   1.416   1_565  A
C448       Br453   1.930       .  S
C449        C450   1.412       .  A
C450       Br451   1.939       .  S
C455        C456   1.406       .  A
C455        C460   1.407       .  A
C455       Br462   1.928       .  S
C456        C457   1.410   1_565  A
C457        C458   1.405       .  A
C457       Br464   1.926       .  S
C458        C459   1.407       .  A
C458       Br463   1.931       .  S
C459        C460   1.412   1_545  A
C460       Br461   1.925       .  S
C465        C466   1.412       .  A
C465        C470   1.411       .  A
C465       Br472   1.930       .  S
C466        C467   1.412       .  A
C467        C468   1.403       .  A
C467       Br474   1.927       .  S
C468        C469   1.415       .  A
C468       Br473   1.941       .  S
C469        C470   1.415       .  A
C470       Br471   1.933       .  S
C475        C476   1.410       .  A
C475        C480   1.407       .  A
C475       Br482   1.928       .  S
C476        C477   1.412       .  A
C477        C478   1.412       .  A
C477       Br484   1.929       .  S
C478        C479   1.411       .  A
C478       Br483   1.925       .  S
C479        C480   1.408       .  A
C480       Br481   1.923       .  S
C485        C486   1.419       .  A
C485        C490   1.405       .  A
C485       Br492   1.935       .  S
C486        C487   1.420       .  A
C487        C488   1.411       .  A
C487       Br494   1.935       .  S
C488        C489   1.411       .  A
C488       Br493   1.935       .  S
C489        C490   1.413       .  A
C490       Br491   1.941       .  S
C495        C496   1.407       .  A
C495        C500   1.408       .  A
C495       Br502   1.930       .  S
C496        C497   1.410       .  A
C497        C498   1.410       .  A
C497       Br504   1.931       .  S
C498        C499   1.412       .  A
C498       Br503   1.930       .  S
C499        C500   1.417       .  A
C500       Br501   1.933       .  S
C505        C506   1.423   1_455  A
C505        C510   1.399       .  A
C505       Br512   1.941       .  S
C506        C507   1.418       .  A
C507        C508   1.412   1_655  A
C507       Br514   1.930       .  S
C508        C509   1.406       .  A
C508       Br513   1.928   1_455  S
C509        C510   1.403       .  A
C510       Br511   1.936       .  S
C515        C516   1.404       .  A
C515        C520   1.404       .  A
C515       Br522   1.931       .  S
C516        C517   1.407   1_655  A
C517        C518   1.404       .  A
C517       Br524   1.924       .  S
C518        C519   1.406       .  A
C518       Br523   1.928       .  S
C519        C520   1.413   1_455  A
C520       Br521   1.928       .  S
C525        C526   1.409       .  A
C525        C530   1.408       .  A
C525       Br532   1.931       .  S
C526        C527   1.409       .  A
C527        C528   1.403       .  A
C527       Br534   1.933       .  S
C528        C529   1.406       .  A
C528       Br533   1.924       .  S
C529        C530   1.410       .  A
C530       Br531   1.927       .  S
C535        C536   1.405       .  A
C535        C540   1.399       .  A
C535       Br542   1.932       .  S
C536        C537   1.408       .  A
C537        C538   1.413       .  A
C537       Br544   1.929       .  S
C538        C539   1.417       .  A
C538       Br543   1.926       .  S
C539        C540   1.417       .  A
C540       Br541   1.939       .  S
C545        C546   1.416       .  A
C545        C550   1.411       .  A
C545       Br552   1.926       .  S
C546        C547   1.417       .  A
C547        C548   1.413       .  A
C547       Br554   1.932       .  S
C548        C549   1.411       .  A
C548       Br553   1.931       .  S
C549        C550   1.410       .  A
C550       Br551   1.935       .  S
C555        C556   1.416       .  A
C555        C560   1.408       .  A
C555       Br562   1.934       .  S
C556        C557   1.413       .  A
C557        C558   1.409       .  A
C557       Br564   1.927       .  S
C558        C559   1.410       .  A
C558       Br563   1.932       .  S
C559        C560   1.408       .  A
C560       Br561   1.928       .  S
C565        C566   1.407       .  A
C565        C570   1.409       .  A
C565       Br572   1.927       .  S
C566        C567   1.406       .  A
C567        C568   1.401       .  A
C567       Br574   1.932       .  S
C568        C569   1.415       .  A
C568       Br573   1.937       .  S
C569        C570   1.412       .  A
C570       Br571   1.926       .  S
C575        C576   1.410       .  A
C575        C580   1.408       .  A
C575       Br582   1.928       .  S
C576        C577   1.407       .  A
C577        C578   1.405       .  A
C577       Br584   1.932       .  S
C578        C579   1.413       .  A
C578       Br583   1.932       .  S
C579        C580   1.409       .  A
C580       Br581   1.930       .  S
C585        C586   1.411       .  A
C585        C590   1.410       .  A
C585       Br592   1.931       .  S
C586        C587   1.412       .  A
C587        C588   1.405       .  A
C587       Br594   1.934       .  S
C588        C589   1.410       .  A
C588       Br593   1.932       .  S
C589        C590   1.412       .  A
C590       Br591   1.931       .  S
C595        C596   1.411       .  A
C595        C600   1.409       .  A
C595       Br602   1.935       .  S
C596        C597   1.413       .  A
C597        C598   1.408       .  A
C597       Br604   1.932       .  S
C598        C599   1.419       .  A
C598       Br603   1.941       .  S
C599        C600   1.421       .  A
C600       Br601   1.934       .  S
C605        C606   1.408       .  A
C605        C610   1.404       .  A
C605       Br612   1.939       .  S
C606        C607   1.410       .  A
C607        C608   1.413       .  A
C607       Br614   1.932       .  S
C608        C609   1.421       .  A
C608       Br613   1.933       .  S
C609        C610   1.422       .  A
C610       Br611   1.937       .  S
C615        C616   1.419       .  A
C615        C620   1.408       .  A
C615       Br622   1.940       .  S
C616        C617   1.422       .  A
C617        C618   1.418       .  A
C617       Br624   1.933       .  S
C618        C619   1.418       .  A
C618       Br623   1.935       .  S
C619        C620   1.420       .  A
C620       Br621   1.941       .  S
Fe625       O641   2.045       .  S
Fe625       O631   2.064       .  S
Fe625       O638   2.078       .  S
Fe625       O630   2.019       .  S
Fe625       O636   1.943       .  S
Fe626       O629   2.049       .  S
Fe626       O633   2.093       .  S
Fe626       O637   2.062       .  S
Fe626       O642   2.076       .  S
Fe626       O636   1.944       .  S
Fe627       O645   2.088       .  S
Fe627       O632   2.065       .  S
Fe627       O639   2.061       .  S
Fe627       O628   2.098       .  S
Fe627       O636   1.964       .  S
O628        C635   1.274       .  A
O629        C643   1.270       .  A
O630        C635   1.262       .  A
O631        C634   1.268       .  A
O632        C644   1.270       .  A
O633        C646   1.272       .  A
C634        O639   1.268       .  A
C634       C1200   1.464       .  S
C635       C1193   1.472       .  S
O637        C640   1.269       .  A
O638        C640   1.270       .  A
C640       C1220   1.484       .  S
O641        C646   1.265       .  A
O642        C644   1.270       .  A
C643        O645   1.274       .  A
C643       C1230   1.479       .  S
C644       C1240   1.473       .  S
C646       C1210   1.481       .  S
Fe647       O663   2.073       .  S
Fe647       O653   2.040       .  S
Fe648       O659   2.080       .  S
Fe648       O664   2.073       .  S
Fe648       O658   1.964       .  S
Fe649       O654   2.079       .  S
Fe649       O650   2.054       .  S
Fe649       O658   1.973       .  S
O650        C657   1.265       .  A
O651        C665   1.269       .  A
O652        C657   1.268       .  A
O653        C656   1.266       .  A
O654        C666   1.273       .  A
O655        C668   1.269       .  A
C656        O661   1.276       .  A
C656       C1163   1.495       .  S
C657       C1153   1.465       .  S
O659        C662   1.269       .  A
O660        C662   1.268       .  A
C662       C1223   1.493       .  S
O663        C668   1.269       .  A
O664        C666   1.274       .  A
C665        O667   1.273       .  A
C665       C1180   1.484       .  S
C666       C1170   1.493       .  S
C668       C1213   1.481       .  S
Fe669       O685   2.071       .  S
Fe669       O675   2.035       .  S
Fe669       O682   2.041       .  S
Fe669       O674   2.048       .  S
Fe669       O680   1.974       .  S
Fe670       O673   2.060       .  S
Fe670       O677   2.076       .  S
Fe670       O681   2.067       .  S
Fe670       O686   2.070       .  S
Fe670       O680   1.980       .  S
Fe671       O689   2.076       .  S
Fe671       O676   2.068       .  S
Fe671       O683   2.079       .  S
Fe671       O672   2.082       .  S
Fe671       O680   1.991       .  S
O672        C679   1.271       .  A
O673        C687   1.268       .  A
O674        C679   1.267       .  A
O675        C678   1.262       .  A
O676        C688   1.268       .  A
O677        C690   1.271       .  A
C678        O683   1.269       .  A
C678       C1143   1.468       .  S
C679       C1133   1.475       .  S
O681        C684   1.267       .  A
O682        C684   1.262       .  A
C684       C1113   1.480       .  S
O685        C690   1.270       .  A
O686        C688   1.270       .  A
C687        O689   1.272       .  A
C687       C1183   1.477       .  S
C688       C1173   1.483       .  S
C690       C1120   1.479       .  S
Fe691       O707   2.053       .  S
Fe691       O697   2.068       .  S
Fe692       O703   2.060       .  S
Fe692       O708   2.056       .  S
Fe692       O702   1.969   1_556  S
Fe693       O698   2.083   1_554  S
Fe693       O694   2.110   1_554  S
Fe693       O702   1.979       .  S
O694        C701   1.278       .  A
O695        C709   1.267       .  A
O696        C701   1.265       .  A
O697        C700   1.270       .  A
O698        C710   1.272       .  A
O699        C712   1.274       .  A
C700        O705   1.269       .  A
C700       C1080   1.478       .  S
C701       C1070   1.502       .  S
O703        C706   1.265       .  A
O704        C706   1.267       .  A
C706       C1090   1.480       .  S
O707        C712   1.266       .  A
O708        C710   1.267       .  A
C709        O711   1.277       .  A
C709       C1233   1.495       .  S
C710       C1243   1.483       .  S
C712       C1103   1.484       .  S
Fe713       O729   2.050       .  S
Fe713       O719   2.081       .  S
Fe714       O725   2.062       .  S
Fe714       O730   2.062       .  S
Fe714       O724   1.985   1_556  S
Fe715       O720   2.067       .  S
Fe715       O716   2.093       .  S
Fe715       O724   1.991   1_556  S
O716        C723   1.273       .  A
O717        C731   1.266       .  A
O718        C723   1.262       .  A
O719        C722   1.272       .  A
O720        C732   1.269       .  A
O721        C734   1.269       .  A
C722        O727   1.263       .  A
C722       C1140   1.471       .  S
C723       C1130   1.500       .  S
O725        C728   1.267       .  A
O726        C728   1.268       .  A
C728       C1050   1.483       .  S
O729        C734   1.267       .  A
O730        C732   1.268       .  A
C731        O733   1.270       .  A
C731       C1040   1.487       .  S
C732       C1030   1.470       .  S
C734       C1060   1.477       .  S
Fe735       O751   2.056       .  S
Fe735       O741   2.061       .  S
Fe735       O748   2.089       .  S
Fe735       O740   2.045       .  S
Fe735       O746   1.954       .  S
Fe736       O739   2.047       .  S
Fe736       O743   2.088       .  S
Fe736       O747   2.061       .  S
Fe736       O752   2.084       .  S
Fe736       O746   1.966       .  S
Fe737       O755   2.094       .  S
Fe737       O742   2.049       .  S
Fe737       O749   2.069       .  S
Fe737       O738   2.093       .  S
Fe737       O746   1.974       .  S
O738        C745   1.274       .  A
O739        C753   1.268       .  A
O740        C745   1.269       .  A
O741        C744   1.266       .  A
O742        C754   1.264       .  A
O743        C756   1.270       .  A
C744        O749   1.268       .  A
C744       C1083   1.471       .  S
C745       C1073   1.494       .  S
O747        C750   1.269       .  A
O748        C750   1.275       .  A
C750       C1010   1.492       .  S
O751        C756   1.265       .  A
O752        C754   1.271       .  A
C753        O755   1.275       .  A
C753       C1043   1.486       .  S
C754       C1033   1.473       .  S
C756       C1023   1.498       .  S
Fe757       O773   2.053       .  S
Fe757       O763   2.043       .  S
Fe757       O770   2.056       .  S
Fe757       O762   2.053       .  S
Fe757       O768   1.975       .  S
Fe758       O761   2.058       .  S
Fe758       O765   2.059       .  S
Fe758       O769   2.066       .  S
Fe758       O774   2.051       .  S
Fe758       O768   1.983       .  S
Fe759       O777   2.073       .  S
Fe759       O764   2.068       .  S
Fe759       O771   2.071       .  S
Fe759       O760   2.079       .  S
Fe759       O768   1.988       .  S
O760        C767   1.271       .  A
O761        C775   1.268       .  A
O762        C767   1.266       .  A
O763        C766   1.265       .  A
O764        C776   1.269       .  A
O765        C778   1.265       .  A
C766        O771   1.268       .  A
C766        C980   1.467       .  S
C767        C970   1.478       .  S
O769        C772   1.269       .  A
O770        C772   1.267       .  A
C772       C1053   1.475       .  S
O773        C778   1.266       .  A
O774        C776   1.266       .  A
C775        O777   1.270       .  A
C775        C990   1.479       .  S
C776       C1000   1.471       .  S
C778       C1063   1.473       .  S
Fe779       O795   2.077       .  S
Fe779       O785   2.040       .  S
Fe780       O791   2.096   1_554  S
Fe780       O796   2.065   1_554  S
Fe780       O790   1.964   1_554  S
Fe781       O786   2.092   1_554  S
Fe781       O782   2.078   1_554  S
Fe781       O790   1.972   1_554  S
O782        C789   1.272       .  A
O783        C797   1.269       .  A
O784        C789   1.275       .  A
O785        C788   1.263       .  A
O786        C798   1.274       .  A
O787        C800   1.270       .  A
C788        O793   1.272       .  A
C788        C940   1.497       .  S
C789        C933   1.489       .  S
O791        C794   1.273       .  A
O792        C794   1.266       .  A
C794       C1013   1.483       .  S
O795        C800   1.272       .  A
O796        C798   1.273       .  A
C797        O799   1.271       .  A
C797        C950   1.473       .  S
C798        C960   1.495       .  S
C800       C1020   1.489       .  S
Fe801       O817   2.066       .  S
Fe801       O807   2.041       .  S
Fe802       O813   2.070   1_554  S
Fe802       O818   2.060   1_554  S
Fe802       O812   1.980       .  S
Fe803       O808   2.066       .  S
Fe803       O804   2.062       .  S
Fe803       O812   1.990   1_556  S
O804        C811   1.267       .  A
O805        C819   1.267       .  A
O806        C811   1.269       .  A
O807        C810   1.264       .  A
O808        C820   1.268       .  A
O809        C822   1.268       .  A
C810        O815   1.266       .  A
C810       C1203   1.468       .  S
C811       C1190   1.465       .  S
O813        C816   1.268       .  A
O814        C816   1.265       .  A
C816        C910   1.483       .  S
O817        C822   1.269       .  A
O818        C820   1.268       .  A
C819        O821   1.271       .  A
C819        C993   1.472       .  S
C820       C1003   1.474       .  S
C822        C923   1.472       .  S
Fe823       O839   2.043       .  S
Fe823       O829   2.049       .  S
Fe823       O836   2.052       .  S
Fe823       O828   2.030       .  S
Fe823       O834   1.972       .  S
Fe824       O827   2.065       .  S
Fe824       O831   2.073       .  S
Fe824       O835   2.070       .  S
Fe824       O840   2.062       .  S
Fe824       O834   1.982       .  S
Fe825       O843   2.069       .  S
Fe825       O830   2.085       .  S
Fe825       O837   2.093       .  S
Fe825       O826   2.068       .  S
Fe825       O834   1.990       .  S
O826        C833   1.266       .  A
O827        C841   1.268       .  A
O828        C833   1.262       .  A
O829        C832   1.267       .  A
O830        C842   1.273       .  A
O831        C844   1.270       .  A
C832        O837   1.274       .  A
C832       C1160   1.482       .  S
C833       C1150   1.462       .  S
O835        C838   1.269       .  A
O836        C838   1.265       .  A
C838        C913   1.477       .  S
O839        C844   1.265       .  A
O840        C842   1.270       .  A
C841        O843   1.268       .  A
C841        C953   1.476       .  S
C842        C963   1.490       .  S
C844        C920   1.474       .  S
Fe845       O861   2.064       .  S
Fe845       O851   2.025       .  S
Fe846       O857   2.077       .  S
Fe846       O862   2.048       .  S
Fe846       O856   1.957       .  S
Fe847       O852   2.094   1_554  S
Fe847       O848   2.072   1_554  S
Fe847       O856   1.971   1_554  S
O848        C855   1.271       .  A
O849        C863   1.271       .  A
O850        C855   1.272       .  A
O851        C854   1.261       .  A
O852        C864   1.274       .  A
O853        C866   1.271       .  A
C854        O859   1.272       .  A
C854        C983   1.476       .  S
C855        C973   1.477       .  S
O857        C860   1.271       .  A
O858        C860   1.266       .  A
C860       C1110   1.485       .  S
O861        C866   1.267       .  A
O862        C864   1.267       .  A
C863        O865   1.269       .  A
C863        C903   1.508       .  S
C864        C893   1.496       .  S
C866       C1123   1.483       .  S
Fe867       O883   2.081       .  S
Fe867       O873   2.040       .  S
Fe867       O880   2.043       .  S
Fe867       O872   2.048       .  S
Fe867       O878   1.953       .  S
Fe868       O871   2.064       .  S
Fe868       O875   2.074       .  S
Fe868       O879   2.079       .  S
Fe868       O884   2.059       .  S
Fe868       O878   1.964       .  S
Fe869       O887   2.084       .  S
Fe869       O874   2.105       .  S
Fe869       O881   2.107       .  S
Fe869       O870   2.100       .  S
Fe869       O878   1.963       .  S
O870        C877   1.275       .  A
O871        C885   1.264       .  A
O872        C877   1.263       .  A
O873        C876   1.268       .  A
O874        C886   1.279       .  A
O875        C888   1.272       .  A
C876        O881   1.277       .  A
C876        C943   1.495       .  S
C877        C930   1.482       .  S
O879        C882   1.268       .  A
O880        C882   1.261       .  A
C882       C1093   1.484       .  S
O883        C888   1.273       .  A
O884        C886   1.273       .  A
C885        O887   1.273       .  A
C885        C900   1.504       .  S
C886        C890   1.489       .  S
C888       C1100   1.489       .  S
C889        C890   1.412       .  A
C889        C894   1.409       .  A
C889       Br896   1.936       .  S
C890        C891   1.411       .  A
C891        C892   1.414       .  A
C891       Br898   1.926       .  S
C892        C893   1.419       .  A
C892       Br897   1.933       .  S
C893        C894   1.418       .  A
C894       Br895   1.938       .  S
C899        C900   1.416       .  A
C899        C904   1.416       .  A
C899       Br906   1.936       .  S
C900        C901   1.422       .  A
C901        C902   1.409       .  A
C901       Br908   1.940       .  S
C902        C903   1.420       .  A
C902       Br907   1.943       .  S
C903        C904   1.423       .  A
C904       Br905   1.934       .  S
C909        C910   1.416       .  A
C909        C914   1.407       .  A
C909       Br916   1.935       .  S
C910        C911   1.414       .  A
C911        C912   1.409       .  A
C911       Br918   1.933       .  S
C912        C913   1.411       .  A
C912       Br917   1.932       .  S
C913        C914   1.410       .  A
C914       Br915   1.935       .  S
C919        C920   1.409       .  A
C919        C924   1.407       .  A
C919       Br926   1.932       .  S
C920        C921   1.414       .  A
C921        C922   1.405       .  A
C921       Br928   1.934       .  S
C922        C923   1.408       .  A
C922       Br927   1.933       .  S
C923        C924   1.411       .  A
C924       Br925   1.932       .  S
C929        C930   1.409       .  A
C929        C934   1.408       .  A
C929       Br936   1.926       .  S
C930        C931   1.411   1_565  A
C931        C932   1.412       .  A
C931       Br938   1.926       .  S
C932        C933   1.410       .  A
C932       Br937   1.921       .  S
C933        C934   1.410   1_545  A
C934       Br935   1.925       .  S
C939        C940   1.420   1_565  A
C939        C944   1.404       .  A
C939       Br946   1.943       .  S
C940        C941   1.419       .  A
C941        C942   1.417   1_545  A
C941       Br948   1.932       .  S
C942        C943   1.414       .  A
C942       Br947   1.929       .  S
C943        C944   1.414       .  A
C944       Br945   1.932       .  S
C949        C950   1.408       .  A
C949        C954   1.409       .  A
C949       Br956   1.930       .  S
C950        C951   1.409       .  A
C951        C952   1.407       .  A
C951       Br958   1.930       .  S
C952        C953   1.409       .  A
C952       Br957   1.928       .  S
C953        C954   1.411       .  A
C954       Br955   1.930       .  S
C959        C960   1.415       .  A
C959        C964   1.408       .  A
C959       Br966   1.936       .  S
C960        C961   1.418       .  A
C961        C962   1.414       .  A
C961       Br968   1.929       .  S
C962        C963   1.412       .  A
C962       Br967   1.931       .  S
C963        C964   1.414       .  A
C964       Br965   1.933       .  S
C969        C970   1.413   1_455  A
C969        C974   1.407       .  A
C969       Br976   1.929       .  S
C970        C971   1.410       .  A
C971        C972   1.409       .  A
C971       Br978   1.930       .  S
C972        C973   1.410   1_655  A
C972       Br977   1.926       .  S
C973        C974   1.406       .  A
C974       Br975   1.930       .  S
C979        C980   1.405       .  A
C979        C984   1.398       .  A
C979       Br986   1.934       .  S
C980        C981   1.409       .  A
C981        C982   1.410   1_655  A
C981       Br988   1.928       .  S
C982        C983   1.412       .  A
C982       Br987   1.928       .  S
C983        C984   1.416   1_455  A
C984       Br985   1.939       .  S
C989        C990   1.413       .  A
C989        C994   1.406       .  A
C989       Br996   1.933       .  S
C990        C991   1.413       .  A
C991        C992   1.408       .  A
C991       Br998   1.928       .  S
C992        C993   1.408       .  A
C992       Br997   1.932       .  S
C993        C994   1.409       .  A
C994       Br995   1.930       .  S
C999       C1000   1.409       .  A
C999       C1004   1.405       .  A
C999      Br1006   1.931       .  S
C1000      C1001   1.410       .  A
C1001      C1002   1.408       .  A
C1001     Br1008   1.932       .  S
C1002      C1003   1.411       .  A
C1002     Br1007   1.928       .  S
C1003      C1004   1.410       .  A
C1004     Br1005   1.931       .  S
C1009      C1010   1.413       .  A
C1009      C1014   1.405       .  A
C1009     Br1016   1.927       .  S
C1010      C1011   1.417       .  A
C1011      C1012   1.414       .  A
C1011     Br1018   1.926       .  S
C1012      C1013   1.410       .  A
C1012     Br1017   1.927       .  S
C1013      C1014   1.405       .  A
C1014     Br1015   1.923       .  S
C1019      C1020   1.409       .  A
C1019      C1024   1.405       .  A
C1019     Br1026   1.929       .  S
C1020      C1021   1.411       .  A
C1021      C1022   1.416       .  A
C1021     Br1028   1.930       .  S
C1022      C1023   1.422       .  A
C1022     Br1027   1.933       .  S
C1023      C1024   1.420       .  A
C1024     Br1025   1.939       .  S
C1029      C1030   1.410       .  A
C1029      C1034   1.405       .  A
C1029     Br1036   1.929       .  S
C1030      C1031   1.407       .  A
C1031      C1032   1.408       .  A
C1031     Br1038   1.929       .  S
C1032      C1033   1.410       .  A
C1032     Br1037   1.926       .  S
C1033      C1034   1.408       .  A
C1034     Br1035   1.931       .  S
C1039      C1040   1.414       .  A
C1039      C1044   1.403       .  A
C1039     Br1046   1.939       .  S
C1040      C1041   1.416       .  A
C1041      C1042   1.413       .  A
C1041     Br1048   1.933       .  S
C1042      C1043   1.415       .  A
C1042     Br1047   1.931       .  S
C1043      C1044   1.416       .  A
C1044     Br1045   1.940       .  S
C1049      C1050   1.415       .  A
C1049      C1054   1.407       .  A
C1049     Br1056   1.935       .  S
C1050      C1051   1.415       .  A
C1051      C1052   1.408       .  A
C1051     Br1058   1.932       .  S
C1052      C1053   1.410       .  A
C1052     Br1057   1.934       .  S
C1053      C1054   1.409       .  A
C1054     Br1055   1.933       .  S
C1059      C1060   1.414       .  A
C1059      C1064   1.410       .  A
C1059     Br1066   1.932       .  S
C1060      C1061   1.409       .  A
C1061      C1062   1.401       .  A
C1061     Br1068   1.925       .  S
C1062      C1063   1.409       .  A
C1062     Br1067   1.935       .  S
C1063      C1064   1.412       .  A
C1064     Br1065   1.933       .  S
C1069      C1070   1.424   1_545  A
C1069      C1074   1.404       .  A
C1069     Br1076   1.945       .  S
C1070      C1071   1.420       .  A
C1071      C1072   1.418   1_565  A
C1071     Br1078   1.931       .  S
C1072      C1073   1.417       .  A
C1072     Br1077   1.932       .  S
C1073      C1074   1.412       .  A
C1074     Br1075   1.941       .  S
C1079      C1080   1.409       .  A
C1079      C1084   1.410       .  A
C1079     Br1086   1.929       .  S
C1080      C1081   1.410   1_565  A
C1081      C1082   1.403       .  A
C1081     Br1088   1.924       .  S
C1082      C1083   1.406       .  A
C1082     Br1087   1.931       .  S
C1083      C1084   1.410   1_545  A
C1084     Br1085   1.926       .  S
C1089      C1090   1.411       .  A
C1089      C1094   1.410       .  A
C1089     Br1096   1.932       .  S
C1090      C1091   1.410       .  A
C1091      C1092   1.402       .  A
C1091     Br1098   1.931       .  S
C1092      C1093   1.417       .  A
C1092     Br1097   1.941       .  S
C1093      C1094   1.417       .  A
C1094     Br1095   1.934       .  S
C1099      C1100   1.414       .  A
C1099      C1104   1.408       .  A
C1099     Br1106   1.930       .  S
C1100      C1101   1.414       .  A
C1101      C1102   1.411       .  A
C1101     Br1108   1.929       .  S
C1102      C1103   1.411       .  A
C1102     Br1107   1.926       .  S
C1103      C1104   1.410       .  A
C1104     Br1105   1.929       .  S
C1109      C1110   1.415       .  A
C1109      C1114   1.405       .  A
C1109     Br1116   1.935       .  S
C1110      C1111   1.417       .  A
C1111      C1112   1.408       .  A
C1111     Br1118   1.935       .  S
C1112      C1113   1.412       .  A
C1112     Br1117   1.935       .  S
C1113      C1114   1.415       .  A
C1114     Br1115   1.939       .  S
C1119      C1120   1.409       .  A
C1119      C1124   1.409       .  A
C1119     Br1126   1.928       .  S
C1120      C1121   1.410       .  A
C1121      C1122   1.410       .  A
C1121     Br1128   1.929       .  S
C1122      C1123   1.411       .  A
C1122     Br1127   1.929       .  S
C1123      C1124   1.413       .  A
C1124     Br1125   1.930       .  S
C1129      C1130   1.428   1_455  A
C1129      C1134   1.402       .  A
C1129     Br1136   1.943       .  S
C1130      C1131   1.423       .  A
C1131      C1132   1.415   1_655  A
C1131     Br1138   1.930       .  S
C1132      C1133   1.405       .  A
C1132     Br1137   1.927       .  S
C1133      C1134   1.402       .  A
C1134     Br1135   1.935       .  S
C1139      C1140   1.406       .  A
C1139      C1144   1.405       .  A
C1139     Br1146   1.931       .  S
C1140      C1141   1.408   1_655  A
C1141      C1142   1.406       .  A
C1141     Br1148   1.924       .  S
C1142      C1143   1.406       .  A
C1142     Br1147   1.929       .  S
C1143      C1144   1.412   1_455  A
C1144     Br1145   1.929       .  S
C1149      C1150   1.407       .  A
C1149      C1154   1.406       .  A
C1149     Br1156   1.930       .  S
C1150      C1151   1.408       .  A
C1151      C1152   1.400       .  A
C1151     Br1158   1.933       .  S
C1152      C1153   1.404       .  A
C1152     Br1157   1.924       .  S
C1153      C1154   1.409       .  A
C1154     Br1155   1.927       .  S
C1159      C1160   1.407       .  A
C1159      C1164   1.401       .  A
C1159     Br1166   1.931       .  S
C1160      C1161   1.411       .  A
C1161      C1162   1.418       .  A
C1161     Br1168   1.928       .  S
C1162      C1163   1.418       .  A
C1162     Br1167   1.927       .  S
C1163      C1164   1.419       .  A
C1164     Br1165   1.940       .  S
C1169      C1170   1.415       .  A
C1169      C1174   1.408       .  A
C1169     Br1176   1.925       .  S
C1170      C1171   1.418       .  A
C1171      C1172   1.412       .  A
C1171     Br1178   1.934       .  S
C1172      C1173   1.412       .  A
C1172     Br1177   1.933       .  S
C1173      C1174   1.410       .  A
C1174     Br1175   1.935       .  S
C1179      C1180   1.416       .  A
C1179      C1184   1.407       .  A
C1179     Br1186   1.935       .  S
C1180      C1181   1.412       .  A
C1181      C1182   1.409       .  A
C1181     Br1188   1.928       .  S
C1182      C1183   1.409       .  A
C1182     Br1187   1.930       .  S
C1183      C1184   1.408       .  A
C1184     Br1185   1.926       .  S
C1189      C1190   1.409       .  A
C1189      C1194   1.409       .  A
C1189     Br1196   1.927       .  S
C1190      C1191   1.405       .  A
C1191      C1192   1.398       .  A
C1191     Br1198   1.933       .  S
C1192      C1193   1.415       .  A
C1192     Br1197   1.938       .  S
C1193      C1194   1.410       .  A
C1194     Br1195   1.929       .  S
C1199      C1200   1.409       .  A
C1199      C1204   1.407       .  A
C1199     Br1206   1.928       .  S
C1200      C1201   1.405       .  A
C1201      C1202   1.401       .  A
C1201     Br1208   1.931       .  S
C1202      C1203   1.411       .  A
C1202     Br1207   1.931       .  S
C1203      C1204   1.408       .  A
C1204     Br1205   1.931       .  S
C1209      C1210   1.412       .  A
C1209      C1214   1.411       .  A
C1209     Br1216   1.931       .  S
C1210      C1211   1.413       .  A
C1211      C1212   1.407       .  A
C1211     Br1218   1.935       .  S
C1212      C1213   1.412       .  A
C1212     Br1217   1.932       .  S
C1213      C1214   1.411       .  A
C1214     Br1215   1.931       .  S
C1219      C1220   1.411       .  A
C1219      C1224   1.409       .  A
C1219     Br1226   1.934       .  S
C1220      C1221   1.413       .  A
C1221      C1222   1.408       .  A
C1221     Br1228   1.933       .  S
C1222      C1223   1.417       .  A
C1222     Br1227   1.939       .  S
C1223      C1224   1.418       .  A
C1224     Br1225   1.931       .  S
C1229      C1230   1.407       .  A
C1229      C1234   1.404       .  A
C1229     Br1236   1.940       .  S
C1230      C1231   1.410       .  A
C1231      C1232   1.412       .  A
C1231     Br1238   1.932       .  S
C1232      C1233   1.422       .  A
C1232     Br1237   1.936       .  S
C1233      C1234   1.423       .  A
C1234     Br1235   1.937       .  S
C1239      C1240   1.405       .  A
C1239      C1244   1.406       .  A
C1239     Br1246   1.932       .  S
C1240      C1241   1.410       .  A
C1241      C1242   1.412       .  A
C1241     Br1248   1.930       .  S
C1242      C1243   1.412       .  A
C1242     Br1247   1.928       .  S
C1243      C1244   1.415       .  A
C1244     Br1245   1.932       .  S
