geometry optimzed in LAMMPS
_audit_creation_date              2020-12-01 
_audit_creation_method            'lammps2cif' 
_symmetry_space_group_name_H-M    'P1' 
_symmetry_Int_Tables_number       1 
_symmetry_cell_setting            triclinic 
loop_ 
_symmetry_equiv_pos_as_xyz 
  x,y,z 
_cell_length_a                    47.33017142 
_cell_length_b                    47.348788687935354 
_cell_length_c                    50.844873965477916 
_cell_angle_alpha                 89.99155885951686 
_cell_angle_beta                  90.02049951092496 
_cell_angle_gamma                 90.01331182616168 
loop_ 
_atom_site_label 
_atom_site_type_symbol 
_atom_site_fract_x 
_atom_site_fract_y 
_atom_site_fract_z 
_atom_site_charge 
O1          O  0.53124762  0.84768598  0.47177207    -0.73200
O2          O  0.47163294  0.84801577  0.02787925    -0.74100
O3          O  0.53111190  0.84732175  0.02831557    -0.62800
O4          O  0.47171464  0.84794148  0.47156503    -0.71200
O5          O  0.47118770  0.80103683  0.47173812    -0.70700
O6          O  0.53088416  0.80041730  0.02787079    -0.62000
O7          O  0.47064665  0.80111444  0.02739959    -0.74500
O8          O  0.53142237  0.80077939  0.47196155    -0.73300
Cu9        Cu  0.50148500  0.84937917  0.99988346     1.04600
Cu10       Cu  0.50106592  0.79919375  0.49974149     1.04300
C11         C  0.54048926  0.82424771  0.46282440     0.93000
C12         C  0.46174805  0.82467485  0.03644777     0.92200
C13         C  0.54002970  0.82370943  0.03724727     0.84300
C14         C  0.46215047  0.82453729  0.46273366     0.90600
N15         N  0.64867794  0.86578256  0.33334186    -0.27500
N16         N  0.62368196  0.87465879  0.34154354    -0.35400
C17         C  0.61506690  0.89596871  0.32594785     0.00800
C18         C  0.63582221  0.90094990  0.30736059     0.06900
C19         C  0.65686716  0.88155629  0.31269759    -0.06200
H20         H  0.59531100  0.90724830  0.32820011     0.07500
H21         H  0.67639476  0.87862375  0.30194913     0.08700
Cu22       Cu  0.60273273  0.85781241  0.37397339     0.44200
Cu23       Cu  0.66945992  0.83100264  0.34883599     0.42000
Cu24       Cu  0.63074661  0.79207647  0.39841269     0.43900
N25         N  0.58660824  0.83683202  0.40670397    -0.34900
N26         N  0.59611326  0.81205038  0.41479647    -0.29100
C27         C  0.58104440  0.80363132  0.43581239    -0.05200
C28         C  0.56145131  0.82435036  0.44152467     0.07000
C29         C  0.56556283  0.84512215  0.42274380     0.00800
H30         H  0.58459900  0.78419076  0.44653613     0.08400
H31         H  0.55388243  0.86466487  0.42068813     0.07500
N32         N  0.66831188  0.77834700  0.38204068    -0.36300
N33         N  0.68271998  0.79265685  0.36419922    -0.28500
C34         C  0.70618452  0.77809689  0.35799021    -0.03800
C35         C  0.70642376  0.75334429  0.37251769     0.04800
C36         C  0.68225020  0.75440750  0.38774756     0.02900
H37         H  0.72207613  0.78524101  0.34419296     0.08000
H38         H  0.67526940  0.73887693  0.40197919     0.06900
N39         N  0.40538950  0.81193422  0.41582280    -0.27500
N40         N  0.41400284  0.83721203  0.40815219    -0.35400
C41         C  0.43530829  0.84569357  0.42381007     0.00800
C42         C  0.44060588  0.82457958  0.44192719     0.06900
C43         C  0.42137945  0.80344052  0.43623805    -0.06200
H44         H  0.44639071  0.86560223  0.42188571     0.07500
H45         H  0.41876122  0.78360206  0.44656262     0.08700
Cu46       Cu  0.39703369  0.85866585  0.37622437     0.44200
Cu47       Cu  0.37085373  0.79107623  0.39956504     0.42000
Cu48       Cu  0.33147775  0.83057325  0.35080093     0.43900
N49         N  0.37645573  0.87495481  0.34348775    -0.34900
N50         N  0.35178234  0.86551093  0.33500709    -0.29100
C51         C  0.34385967  0.88064433  0.31385776    -0.05200
C52         C  0.36478965  0.90017672  0.30851012     0.07000
C53         C  0.38516039  0.89598602  0.32762562     0.00800
H54         H  0.32466012  0.87712566  0.30274528     0.08400
H55         H  0.40474763  0.90753534  0.32998982     0.07500
N56         N  0.31852094  0.79184957  0.36563918    -0.36300
N57         N  0.33316092  0.77707666  0.38299243    -0.28500
C58         C  0.31928720  0.75287152  0.38808901    -0.03800
C59         C  0.29489228  0.75217036  0.37299239     0.04800
C60         C  0.29500322  0.77744908  0.35924635     0.02900
H61         H  0.32642110  0.73692744  0.40185561     0.08000
H62         H  0.27895686  0.78510523  0.34585882     0.06900
N63         N  0.64670335  0.86415560  0.16726718    -0.27500
N64         N  0.62163896  0.87294196  0.15918493    -0.35400
C65         C  0.61345871  0.89487703  0.17417976     0.00800
C66         C  0.63460936  0.90034598  0.19223666     0.06900
C67         C  0.65540626  0.88060556  0.18724030    -0.06200
H68         H  0.59373076  0.90619555  0.17189075     0.07500
H69         H  0.67506980  0.87785597  0.19783613     0.08700
Cu70       Cu  0.60030926  0.85527158  0.12755385     0.44200
Cu71       Cu  0.66677252  0.82864506  0.15254070     0.42000
Cu72       Cu  0.62734999  0.78849622  0.10418579     0.43900
N73         N  0.58477748  0.83464161  0.09456896    -0.34900
N74         N  0.59383083  0.80960831  0.08670735    -0.29100
C75         C  0.57929643  0.80184115  0.06513794    -0.05200
C76         C  0.56059396  0.82324958  0.05888910     0.07000
C77         C  0.56463109  0.84371927  0.07791404     0.00800
H78         H  0.58254607  0.78231607  0.05446836     0.08400
H79         H  0.55346414  0.86358037  0.07975607     0.07500
N80         N  0.66497609  0.77490801  0.12087840    -0.36300
N81         N  0.67969802  0.78984197  0.13804773    -0.28500
C82         C  0.70363326  0.77587532  0.14387472    -0.03800
C83         C  0.70391551  0.75078143  0.12986407     0.04800
C84         C  0.67917501  0.75106510  0.11531723     0.02900
H85         H  0.71998424  0.78385973  0.15677588     0.08000
H86         H  0.67220987  0.73528679  0.10132914     0.06900
N87         N  0.40343799  0.81356922  0.08184004    -0.27500
N88         N  0.41391313  0.83745980  0.09116148    -0.35400
C89         C  0.43608266  0.84523787  0.07625859     0.00800
C90         C  0.43997473  0.82500272  0.05698368     0.06900
C91         C  0.41901375  0.80519611  0.06113431    -0.06200
H92         H  0.44874394  0.86396187  0.07952029     0.07500
H93         H  0.41500032  0.78637185  0.04963514     0.08700
Cu94       Cu  0.39824517  0.85767467  0.12436962     0.44200
Cu95       Cu  0.36756600  0.79415336  0.09670872     0.42000
Cu96       Cu  0.33242850  0.82945417  0.15030673     0.43900
N97         N  0.37807983  0.87332378  0.15761309    -0.34900
N98         N  0.35347717  0.86382573  0.16623555    -0.29100
C99         C  0.34549307  0.87915479  0.18720935    -0.05200
C100        C  0.36628262  0.89887361  0.19231186     0.07000
C101        C  0.38668080  0.89458399  0.17326251     0.00800
H102        H  0.32616857  0.87586182  0.19818991     0.08400
H103        H  0.40604141  0.90643584  0.17060566     0.07500
N104        N  0.31711469  0.79300516  0.13278004    -0.36300
N105        N  0.33011481  0.77998053  0.11324938    -0.28500
C106        C  0.31514914  0.75696814  0.10645707    -0.03800
C107        C  0.29136575  0.75555707  0.12229194     0.04800
C108        C  0.29354815  0.77859070  0.13896840     0.02900
H109        H  0.32144055  0.74211947  0.09137942     0.08000
H110        H  0.27901405  0.78448435  0.15447676     0.06900
O111        O  0.61198615  0.99137878  0.22122839    -0.73200
O112        O  0.61217346  0.93193378  0.27786209    -0.74100
O113        O  0.61264813  0.99140768  0.27777791    -0.62800
O114        O  0.61153630  0.93183632  0.22153223    -0.71200
O115        O  0.65846806  0.93124932  0.22147270    -0.70700
O116        O  0.65957424  0.99146523  0.27706467    -0.62000
O117        O  0.65908863  0.93131793  0.27712676    -0.74500
O118        O  0.65890839  0.99143019  0.22124161    -0.73300
Cu119      Cu  0.61043759  0.96168471  0.24960695     1.04600
Cu120      Cu  0.66064508  0.96137985  0.24919754     1.04300
C121        C  0.63544074  0.00056361  0.21218099     0.93000
C122        C  0.63567310  0.92236188  0.28644370     0.92200
C123        C  0.63626889  0.00056175  0.28646575     0.84300
C124        C  0.63486630  0.92217483  0.21268767     0.90600
O125        O  0.34186338  0.93001210  0.27762686    -0.73200
O126        O  0.34268242  0.98973264  0.22149729    -0.74100
O127        O  0.34266019  0.92950851  0.22191441    -0.62800
O128        O  0.34188320  0.99016521  0.27701093    -0.71200
O129        O  0.38881481  0.98979695  0.27786346    -0.70700
O130        O  0.38959507  0.92978727  0.22204094    -0.62000
O131        O  0.38961519  0.98935060  0.22160993    -0.74500
O132        O  0.38878272  0.93030458  0.27850392    -0.73300
Cu133      Cu  0.34063787  0.95982097  0.24947588     1.04600
Cu134      Cu  0.39085646  0.95977901  0.25001635     1.04300
C135        C  0.36517938  0.92107173  0.28716247     0.93000
C136        C  0.36624618  0.99889329  0.21270825     0.92200
C137        C  0.36620415  0.92034153  0.21310280     0.84300
C138        C  0.36524030  0.99938673  0.28620361     0.90600
O139        O  0.52928000  0.07262555  0.02659520    -0.73200
O140        O  0.46891076  0.07283582  0.47114663    -0.74100
O141        O  0.52839578  0.07270835  0.47024024    -0.62800
O142        O  0.46971650  0.07311589  0.02763525    -0.71200
O143        O  0.46972196  0.12001907  0.02719667    -0.70700
O144        O  0.52879867  0.11961650  0.47057478    -0.62000
O145        O  0.46867301  0.11975297  0.47142708    -0.74500
O146        O  0.52996522  0.11953049  0.02623738    -0.73300
Cu147      Cu  0.49903543  0.07117279  0.49890621     1.04600
Cu148      Cu  0.49927001  0.12136483  0.49885472     1.04300
C149        C  0.53907788  0.09600433  0.03518191     0.93000
C150        C  0.45952143  0.09629569  0.46237815     0.92200
C151        C  0.53778110  0.09617700  0.46140126     0.84300
C152        C  0.46068295  0.09668213  0.03656900     0.90600
N153        N  0.35244939  0.05720682  0.33162812    -0.27500
N154        N  0.37694374  0.04778390  0.34057685    -0.35400
C155        C  0.38537929  0.02594748  0.32560681     0.00800
C156        C  0.36498938  0.02116563  0.30667284     0.06900
C157        C  0.34434516  0.04122473  0.31110177    -0.06200
H158        H  0.40472294  0.01414864  0.32856592     0.07500
H159        H  0.32518602  0.04443339  0.29984785     0.08700
Cu160      Cu  0.39738301  0.06425545  0.37327733     0.44200
Cu161      Cu  0.33224901  0.09265873  0.34628943     0.42000
Cu162      Cu  0.36915551  0.12924305  0.39867654     0.43900
N163        N  0.41318392  0.08441053  0.40642073    -0.34900
N164        N  0.40357333  0.10897024  0.41493296    -0.29100
C165        C  0.41861912  0.11703895  0.43606286    -0.05200
C166        C  0.43829903  0.09629326  0.44137324     0.07000
C167        C  0.43427703  0.07587472  0.42227895     0.00800
H168        H  0.41509414  0.13631608  0.44703815     0.08400
H169        H  0.44613585  0.05650098  0.41979825     0.07500
N170        N  0.33223818  0.14361200  0.38172203    -0.36300
N171        N  0.31877693  0.13044804  0.36251220    -0.28500
C172        C  0.29553436  0.14528395  0.35618184    -0.03800
C173        C  0.29439073  0.16882451  0.37224611     0.04800
C174        C  0.31779735  0.16695466  0.38835101     0.02900
H175        H  0.28027991  0.13905185  0.34140362     0.08000
H176        H  0.32384350  0.18143540  0.40384178     0.06900
N177        N  0.59496269  0.10901550  0.41517079    -0.27500
N178        N  0.58629418  0.08392813  0.40705230    -0.35400
C179        C  0.56464077  0.07541184  0.42226764     0.00800
C180        C  0.55922540  0.09633692  0.44054675     0.06900
C181        C  0.57869805  0.11738202  0.43540467    -0.06200
H182        H  0.55353894  0.05555417  0.42004222     0.07500
H183        H  0.58143742  0.13695863  0.44611374     0.08700
Cu184      Cu  0.60397157  0.06276347  0.37531887     0.44200
Cu185      Cu  0.63020370  0.12949967  0.40015598     0.42000
Cu186      Cu  0.66936724  0.09122118  0.35018225     0.43900
N187        N  0.62476773  0.04664981  0.34266265    -0.34900
N188        N  0.64934417  0.05629957  0.33416217    -0.29100
C189        C  0.65740379  0.04119090  0.31304862    -0.05200
C190        C  0.63662506  0.02148474  0.30774981     0.07000
C191        C  0.61624466  0.02552081  0.32685370     0.00800
H192        H  0.67658827  0.04482705  0.30194624     0.08400
H193        H  0.59675807  0.01380201  0.32924269     0.07500
N194        N  0.68297924  0.12874855  0.36692461    -0.36300
N195        N  0.66861901  0.14287756  0.38492551    -0.28500
C196        C  0.68304739  0.16637207  0.39132257    -0.03800
C197        C  0.70778261  0.16696731  0.37677244     0.04800
C198        C  0.70683269  0.14293305  0.36131812     0.02900
H199        H  0.67577578  0.18209358  0.40520837     0.08000
H200        H  0.72235880  0.13624518  0.34696834     0.06900
N201        N  0.64849862  0.05610826  0.16421142    -0.27500
N202        N  0.62375161  0.04673166  0.15584385    -0.35400
C203        C  0.61504753  0.02581538  0.17187083     0.00800
C204        C  0.63551536  0.02162686  0.19093309     0.06900
C205        C  0.65647171  0.04105867  0.18539312    -0.06200
H206        H  0.59549680  0.01419433  0.16954457     0.07500
H207        H  0.67584243  0.04443448  0.19628856     0.08700
Cu208      Cu  0.60346425  0.06262433  0.12262262     0.44200
Cu209      Cu  0.66927475  0.09040225  0.14782757     0.42000
Cu210      Cu  0.63178391  0.12823962  0.09671696     0.43900
N211        N  0.58718699  0.08335193  0.08981119    -0.34900
N212        N  0.59665069  0.10799778  0.08127524    -0.29100
C213        C  0.58089645  0.11636993  0.06066819    -0.05200
C214        C  0.56088575  0.09579705  0.05572876     0.07000
C215        C  0.56551304  0.07512102  0.07446923     0.00800
H216        H  0.58415612  0.13574735  0.04976672     0.08400
H217        H  0.55364485  0.05576597  0.07709094     0.07500
N218        N  0.66979312  0.14169978  0.11268904    -0.36300
N219        N  0.68363701  0.12766797  0.13110615    -0.28500
C220        C  0.70734010  0.14187430  0.13721434    -0.03800
C221        C  0.70872330  0.16583430  0.12166911     0.04800
C222        C  0.68438714  0.16516191  0.10653118     0.02900
H223        H  0.72244075  0.13528492  0.15200867     0.08000
H224        H  0.67746622  0.18083015  0.09242728     0.06900
N225        N  0.35458270  0.05753735  0.16786405    -0.27500
N226        N  0.37888758  0.04781760  0.15876553    -0.35400
C227        C  0.38690141  0.02551674  0.17339697     0.00800
C228        C  0.36640279  0.02076204  0.19225763     0.06900
C229        C  0.34618339  0.04132977  0.18812922    -0.06200
H230        H  0.40605171  0.01345613  0.17031226     0.07500
H231        H  0.32714501  0.04477363  0.19948985     0.08700
Cu232      Cu  0.39949272  0.06482420  0.12634775     0.44200
Cu233      Cu  0.33499477  0.09369079  0.15381168     0.42000
Cu234      Cu  0.37215864  0.13143581  0.10240260     0.43900
N235        N  0.41517418  0.08543011  0.09335262    -0.34900
N236        N  0.40597004  0.11034048  0.08527095    -0.29100
C237        C  0.42084083  0.11822882  0.06394034    -0.05200
C238        C  0.43993469  0.09704354  0.05806780     0.07000
C239        C  0.43575981  0.07656320  0.07706686     0.00800
H240        H  0.41757131  0.13769173  0.05317218     0.08400
H241        H  0.44712451  0.05684016  0.07914334     0.07500
N242        N  0.33546713  0.14611082  0.12020236    -0.36300
N243        N  0.32165666  0.13210974  0.13865178    -0.28500
C244        C  0.29814534  0.14651399  0.14503662    -0.03800
C245        C  0.29717045  0.17097727  0.13007418     0.04800
C246        C  0.32109762  0.16980171  0.11439385     0.02900
H247        H  0.28245055  0.13914042  0.15889898     0.08000
H248        H  0.32736040  0.18485215  0.09944123     0.06900
O249        O  0.96874180  0.57371811  0.22187826    -0.73200
O250        O  0.02837067  0.57300260  0.27839251    -0.74100
O251        O  0.96883115  0.57335895  0.27842001    -0.62800
O252        O  0.02824437  0.57294862  0.22204692    -0.71200
O253        O  0.02927125  0.61984599  0.22255881    -0.70700
O254        O  0.96873768  0.62026518  0.27820865    -0.62000
O255        O  0.02897521  0.61990626  0.27824226    -0.74500
O256        O  0.96903686  0.62062291  0.22232660    -0.73300
Cu257      Cu  0.99849187  0.57161633  0.25018397     1.04600
Cu258      Cu  0.99898200  0.62180016  0.25033576     1.04300
C259        C  0.95980301  0.59734399  0.21299843     0.93000
C260        C  0.03799577  0.59638453  0.28721508     0.92200
C261        C  0.95964903  0.59682089  0.28737541     0.84300
C262        C  0.03810167  0.59629073  0.21344170     0.90600
O263        O  0.03102019  0.34776729  0.22240807    -0.73200
O264        O  0.97214685  0.34865252  0.27955835    -0.74100
O265        O  0.03164132  0.34811641  0.27888628    -0.62800
O266        O  0.97145438  0.34858688  0.22319099    -0.71200
O267        O  0.97057425  0.30168760  0.22360133    -0.70700
O268        O  0.03156292  0.30119948  0.27867792    -0.62000
O269        O  0.97142506  0.30174777  0.27927769    -0.74500
O270        O  0.03082964  0.30086354  0.22290849    -0.73300
Cu271      Cu  0.00161675  0.34992826  0.25100515     1.04600
Cu272      Cu  0.00110620  0.29973908  0.25112340     1.04300
C273        C  0.04000101  0.32415498  0.21354537     0.93000
C274        C  0.96256238  0.32526585  0.28838894     0.92200
C275        C  0.04084096  0.32460603  0.28772314     0.84300
C276        C  0.96158713  0.32523479  0.21459774     0.90600
O277        O  0.11126925  0.49022292  0.47133455    -0.73200
O278        O  0.11060943  0.43139654  0.02850023    -0.74100
O279        O  0.11036415  0.49098319  0.02778696    -0.62800
O280        O  0.11141323  0.43073332  0.47225618    -0.71200
O281        O  0.15834605  0.43045703  0.47313881    -0.70700
O282        O  0.15729722  0.49147014  0.02794507    -0.62000
O283        O  0.15754280  0.43123516  0.02863093    -0.74500
O284        O  0.15818683  0.49061052  0.47224863    -0.73300
Cu285      Cu  0.10925790  0.46085755  0.99995805     1.04600
Cu286      Cu  0.15947611  0.46098347  0.00052973     1.04300
C287        C  0.13486706  0.49946555  0.46266109     0.93000
C288        C  0.13402448  0.42198916  0.03743605     0.92200
C289        C  0.13370105  0.50059569  0.03668323     0.84300
C290        C  0.13500852  0.42114132  0.46397990     0.90600
N291        N  0.09492979  0.60873532  0.33401296    -0.27500
N292        N  0.08620668  0.58349878  0.34169637    -0.35400
C293        C  0.06481662  0.57513191  0.32608909     0.00800
C294        C  0.05957722  0.59627359  0.30798810     0.06900
C295        C  0.07892299  0.61731749  0.31363810    -0.06200
H296        H  0.05364677  0.55527223  0.32802864     0.07500
H297        H  0.08162205  0.63713875  0.30330151     0.08700
Cu298      Cu  0.10314711  0.56190568  0.37355153     0.44200
Cu299      Cu  0.12965905  0.62937942  0.35016758     0.42000
Cu300      Cu  0.16894008  0.58959884  0.39878439     0.43900
N301        N  0.12369719  0.54550383  0.40624931    -0.34900
N302        N  0.14844547  0.55481812  0.41466315    -0.29100
C303        C  0.15631866  0.53969209  0.43582858    -0.05200
C304        C  0.13528540  0.52029733  0.44125913     0.07000
C305        C  0.11489961  0.52455827  0.42217007     0.00800
H306        H  0.17556320  0.54312447  0.44689709     0.08400
H307        H  0.09523582  0.51312400  0.41986957     0.07500
N308        N  0.18212098  0.62823285  0.38391933    -0.36300
N309        N  0.16751844  0.64311465  0.36661936    -0.28500
C310        C  0.18153540  0.66723170  0.36149893    -0.03800
C311        C  0.20598607  0.66776054  0.37652429     0.04800
C312        C  0.20575540  0.64247294  0.39025404     0.02900
H313        H  0.17445313  0.68324234  0.34777451     0.08000
H314        H  0.22178750  0.63470875  0.40360123     0.06900
N315        N  0.09635877  0.31143577  0.33550473    -0.27500
N316        N  0.08700434  0.33614666  0.34387781    -0.35400
C317        C  0.06613490  0.34490107  0.32786463     0.00800
C318        C  0.06198594  0.32447156  0.30880372     0.06900
C319        C  0.08136480  0.30349238  0.31430113    -0.06200
H320        H  0.05448890  0.36442078  0.33023351     0.07500
H321        H  0.08469322  0.28411309  0.30342803     0.08700
Cu322      Cu  0.10283305  0.35615160  0.37707536     0.44200
Cu323      Cu  0.13032621  0.29074681  0.35215404     0.42000
Cu324      Cu  0.16733884  0.32696872  0.40476104     0.43900
N325        N  0.12325479  0.37252881  0.40981389    -0.34900
N326        N  0.14754277  0.36284915  0.41901214    -0.29100
C327        C  0.15568426  0.37889561  0.43948802    -0.05200
C328        C  0.13526353  0.39925704  0.44361606     0.07000
C329        C  0.11497868  0.39458603  0.42456848     0.00800
H330        H  0.17468144  0.37550909  0.45093139     0.08400
H331        H  0.09580542  0.40659811  0.42139452     0.07500
N332        N  0.18035063  0.28890167  0.38875731    -0.36300
N333        N  0.16685871  0.27587835  0.36948128    -0.28500
C334        C  0.18106838  0.25236101  0.36295368    -0.03800
C335        C  0.20435298  0.25022965  0.37918534     0.04800
C336        C  0.20337839  0.27379904  0.39522575     0.02900
H337        H  0.17499636  0.23798088  0.34738510     0.08000
H338        H  0.21865392  0.27991083  0.41002392     0.06900
N339        N  0.09506150  0.31060021  0.16515868    -0.27500
N340        N  0.08569666  0.33539491  0.15693199    -0.35400
C341        C  0.06494886  0.34416551  0.17307030     0.00800
C342        C  0.06082204  0.32374035  0.19212047     0.06900
C343        C  0.08011944  0.30267812  0.18644023    -0.06200
H344        H  0.05345717  0.36380038  0.17087073     0.07500
H345        H  0.08350858  0.28331483  0.19732866     0.08700
Cu346      Cu  0.10134903  0.35603231  0.12396392     0.44200
Cu347      Cu  0.12924685  0.28983878  0.14833468     0.42000
Cu348      Cu  0.16623162  0.32784465  0.09686925     0.43900
N349        N  0.12178229  0.37313016  0.09151647    -0.34900
N350        N  0.14621494  0.36364294  0.08250669    -0.29100
C351        C  0.15445919  0.37984441  0.06218244    -0.05200
C352        C  0.13401097  0.40016415  0.05793227     0.07000
C353        C  0.11353552  0.39526812  0.07678058     0.00800
H354        H  0.17357588  0.37658668  0.05088857     0.08400
H355        H  0.09425343  0.40713689  0.07980004     0.07500
N356        N  0.18005927  0.28976655  0.11243554    -0.36300
N357        N  0.16632494  0.27568076  0.13088170    -0.28500
C358        C  0.18097875  0.25222267  0.13689348    -0.03800
C359        C  0.20501124  0.25127952  0.12134595     0.04800
C360        C  0.20380698  0.27564594  0.10625946     0.02900
H361        H  0.17478830  0.23713699  0.15183289     0.08000
H362        H  0.21945599  0.28311385  0.09239219     0.06900
N363        N  0.09590271  0.60774882  0.16754266    -0.27500
N364        N  0.08554994  0.58375358  0.15834009    -0.35400
C365        C  0.06361196  0.57578898  0.17346623     0.00800
C366        C  0.05975028  0.59600842  0.19277209     0.06900
C367        C  0.08048649  0.61599640  0.18839348    -0.06200
H368        H  0.05106595  0.55696465  0.17032374     0.07500
H369        H  0.08443155  0.63489413  0.19981066     0.08700
Cu370      Cu  0.10114805  0.56368745  0.12499966     0.44200
Cu371      Cu  0.13138512  0.62751915  0.15226989     0.42000
Cu372      Cu  0.16669979  0.59237782  0.09868862     0.43900
N373        N  0.12143820  0.54801470  0.09180637    -0.34900
N374        N  0.14595185  0.55765355  0.08309255    -0.29100
C375        C  0.15407874  0.54218732  0.06225201    -0.05200
C376        C  0.13347491  0.52222669  0.05732675     0.07000
C377        C  0.11303504  0.52652571  0.07633671     0.00800
H378        H  0.17336381  0.54555722  0.05123202     0.08400
H379        H  0.09378158  0.51452267  0.07909556     0.07500
N380        N  0.18164269  0.62911085  0.11596889    -0.36300
N381        N  0.16856028  0.64208209  0.13548247    -0.28500
C382        C  0.18331546  0.66526364  0.14217000    -0.03800
C383        C  0.20705515  0.66683897  0.12629333     0.04800
C384        C  0.20505841  0.64372680  0.10969006     0.02900
H385        H  0.17694075  0.68007691  0.15724972     0.08000
H386        H  0.21964455  0.63788528  0.09421496     0.06900
O387        O  0.88752008  0.43022995  0.47220619    -0.73200
O388        O  0.88839874  0.48953099  0.02875193    -0.74100
O389        O  0.88811822  0.42998076  0.02878332    -0.62800
O390        O  0.88785576  0.48968884  0.47243938    -0.71200
O391        O  0.84093669  0.49022038  0.47311394    -0.70700
O392        O  0.84119640  0.42981133  0.02873417    -0.62000
O393        O  0.84146599  0.49000097  0.02875275    -0.74500
O394        O  0.84059527  0.43009689  0.47287977    -0.73300
Cu395      Cu  0.88962250  0.45981174  0.50054341     1.04600
Cu396      Cu  0.83941427  0.46000789  0.50090041     1.04300
C397        C  0.86392091  0.42111229  0.46342793     0.93000
C398        C  0.86502935  0.49911335  0.03758814     0.92200
C399        C  0.86468091  0.42070960  0.03778881     0.84300
C400        C  0.86435330  0.49925543  0.46386667     0.90600
N401        N  0.85070778  0.36591090  0.41522203    -0.27500
N402        N  0.87544140  0.37537927  0.40693907    -0.35400
C403        C  0.88405711  0.39629420  0.42296246     0.00800
C404        C  0.86358148  0.40036287  0.44198359     0.06900
C405        C  0.84265065  0.38091418  0.43639786    -0.06200
H406        H  0.90367499  0.40784093  0.42078231     0.07500
H407        H  0.82334670  0.37737578  0.44734775     0.08700
Cu408      Cu  0.89630647  0.35923801  0.37429555     0.44200
Cu409      Cu  0.83041275  0.33132052  0.39888725     0.42000
Cu410      Cu  0.86942575  0.29286018  0.34904414     0.43900
N411        N  0.91391149  0.33795363  0.34255824    -0.34900
N412        N  0.90499256  0.31299549  0.33432363    -0.29100
C413        C  0.92126836  0.30448889  0.31414983    -0.05200
C414        C  0.94102034  0.32530564  0.30915710     0.07000
C415        C  0.93575163  0.34624846  0.32746345     0.00800
H416        H  0.91834558  0.28498307  0.30337220     0.08400
H417        H  0.94707929  0.36596524  0.32978803     0.07500
N418        N  0.83077122  0.27982042  0.36396773    -0.36300
N419        N  0.81646313  0.29402283  0.38195136    -0.28500
C420        C  0.79246231  0.28003511  0.38743473    -0.03800
C421        C  0.79136382  0.25605690  0.37191243     0.04800
C422        C  0.81615950  0.25647892  0.35744796     0.02900
H423        H  0.77696299  0.28678935  0.40178372     0.08000
H424        H  0.82336960  0.24071040  0.34357732     0.06900
N425        N  0.90404990  0.60924160  0.33537770    -0.27500
N426        N  0.91360644  0.58453930  0.34362057    -0.35400
C427        C  0.93465053  0.57616095  0.32761457     0.00800
C428        C  0.93870694  0.59680085  0.30869626     0.06900
C429        C  0.91908074  0.61752703  0.31429420    -0.06200
H430        H  0.94636911  0.55665315  0.32978760     0.07500
H431        H  0.91548586  0.63688516  0.30345315     0.08700
Cu432      Cu  0.89748732  0.56381695  0.37648674     0.44200
Cu433      Cu  0.86943402  0.62929208  0.35172019     0.42000
Cu434      Cu  0.83065854  0.59066572  0.40149636     0.43900
N435        N  0.87644505  0.54705002  0.40888973    -0.34900
N436        N  0.85141373  0.55589648  0.41702829    -0.29100
C437        C  0.84317282  0.54009525  0.43763830    -0.05200
C438        C  0.86422580  0.52072318  0.44301223     0.07000
C439        C  0.88503191  0.52574148  0.42449092     0.00800
H440        H  0.82360467  0.54298660  0.44832828     0.08400
H441        H  0.90479763  0.51447032  0.42227130     0.07500
N442        N  0.81757135  0.62905006  0.38609963    -0.36300
N443        N  0.83199714  0.64324437  0.36819028    -0.28500
C444        C  0.81817865  0.66725560  0.36249587    -0.03800
C445        C  0.79406871  0.66848841  0.37780120     0.04800
C446        C  0.79421584  0.64375693  0.39236205     0.02900
H447        H  0.82519769  0.68272314  0.34820853     0.08000
H448        H  0.77833190  0.63672270  0.40620849     0.06900
N449        N  0.90572232  0.61149239  0.16381894    -0.27500
N450        N  0.91476658  0.58648381  0.15588256    -0.35400
C451        C  0.93499502  0.57739034  0.17243776     0.00800
C452        C  0.93910845  0.59782847  0.19147156     0.06900
C453        C  0.92035461  0.61923352  0.18534028    -0.06200
H454        H  0.94618500  0.55754996  0.17050480     0.07500
H455        H  0.91715006  0.63874075  0.19604840     0.08700
Cu456      Cu  0.89920920  0.56593600  0.12288423     0.44200
Cu457      Cu  0.87211700  0.63259196  0.14646377     0.42000
Cu458      Cu  0.83279723  0.59246940  0.09789874     0.43900
N459        N  0.87801881  0.54829359  0.09118028    -0.34900
N460        N  0.85295909  0.55704909  0.08306230    -0.29100
C461        C  0.84433912  0.54061292  0.06304550    -0.05200
C462        C  0.86518889  0.52091390  0.05806940     0.07000
C463        C  0.88628301  0.52639986  0.07617503     0.00800
H464        H  0.82469456  0.54333381  0.05241745     0.08400
H465        H  0.90602663  0.51511526  0.07849558     0.07500
N466        N  0.81973399  0.63113773  0.11262564    -0.36300
N467        N  0.83440506  0.64605985  0.12984475    -0.28500
C468        C  0.82010728  0.66981802  0.13550313    -0.03800
C469        C  0.79535492  0.67006106  0.12097454     0.04800
C470        C  0.79573228  0.64502565  0.10687442     0.02900
H471        H  0.82703130  0.68558511  0.14953368     0.08000
H472        H  0.77941689  0.63703442  0.09394353     0.06900
N473        N  0.85177275  0.36512500  0.08576172    -0.27500
N474        N  0.87650374  0.37456491  0.09411297    -0.35400
C475        C  0.88514649  0.39549017  0.07807023     0.00800
C476        C  0.86466160  0.39961851  0.05901324     0.06900
C477        C  0.84375251  0.38014281  0.06457347    -0.06200
H478        H  0.90466861  0.40716150  0.08038368     0.07500
H479        H  0.82438014  0.37672058  0.05369254     0.08700
Cu480      Cu  0.89691259  0.35874762  0.12730943     0.44200
Cu481      Cu  0.83108076  0.33079026  0.10216221     0.42000
Cu482      Cu  0.86886887  0.29298225  0.15307610     0.43900
N483        N  0.91339501  0.33796321  0.16000878    -0.34900
N484        N  0.90401834  0.31325887  0.16848059    -0.29100
C485        C  0.91983620  0.30485826  0.18903394    -0.05200
C486        C  0.93980243  0.32546628  0.19401512     0.07000
C487        C  0.93508271  0.34619837  0.17534186     0.00800
H488        H  0.91663459  0.28544243  0.19989004     0.08400
H489        H  0.94687571  0.36560763  0.17277719     0.07500
N490        N  0.83080903  0.27944298  0.13723592    -0.36300
N491        N  0.81686179  0.29347234  0.11888465    -0.28500
C492        C  0.79316578  0.27922578  0.11283483    -0.03800
C493        C  0.79189330  0.25523811  0.12835070     0.04800
C494        C  0.81628418  0.25594024  0.14341274     0.02900
H495        H  0.77800265  0.28580059  0.09810040     0.08000
H496        H  0.82328946  0.24026030  0.15747581     0.06900
C497        C  0.22827608  0.23029606  0.12288719    -0.06300
C498        C  0.23599247  0.21990106  0.14775186    -0.17500
C499        C  0.25875672  0.20132749  0.15090242     0.10900
C500        C  0.27403148  0.19210311  0.12857751    -0.06300
C501        C  0.26633376  0.20252448  0.10371984    -0.17500
C502        C  0.24356361  0.22108255  0.10056781     0.10900
S503        S  0.26810281  0.19179086  0.18410809    -0.32500
S504        S  0.23417798  0.23054037  0.06735405    -0.32500
H505        H  0.20485255  0.23007736  0.07181306     0.28900
H506        H  0.29742790  0.19201032  0.17963457     0.28900
H507        H  0.22482338  0.22709687  0.16510297     0.19500
H508        H  0.27748055  0.19531317  0.08636339     0.19500
C509        C  0.73047927  0.18829611  0.12275742    -0.06300
C510        C  0.74016132  0.19715589  0.14752331    -0.17500
C511        C  0.75950577  0.21934745  0.15006451     0.10900
C512        C  0.77018679  0.23272785  0.12727367    -0.06300
C513        C  0.76051339  0.22385871  0.10250915    -0.17500
C514        C  0.74118083  0.20166031  0.09996702     0.10900
S515        S  0.76819192  0.23058808  0.18296402    -0.32500
S516        S  0.73254241  0.19038576  0.06706628    -0.32500
H517        H  0.73122596  0.16145828  0.07325529     0.28900
H518        H  0.76952061  0.25952082  0.17680116     0.28900
H519        H  0.73182064  0.18736350  0.16516085     0.19500
H520        H  0.76885202  0.23365518  0.08486943     0.19500
C521        C  0.72958929  0.18938585  0.37615236    -0.06300
C522        C  0.73983586  0.19827788  0.35159893    -0.17500
C523        C  0.75925175  0.22045595  0.34948917     0.10900
C524        C  0.76946114  0.23373528  0.37251537    -0.06300
C525        C  0.75919712  0.22486084  0.39706492    -0.17500
C526        C  0.73977288  0.20269450  0.39917568     0.10900
S527        S  0.76863687  0.23184209  0.31680157    -0.32500
S528        S  0.73036086  0.19135954  0.43187064    -0.32500
H529        H  0.72914635  0.16244734  0.42560789     0.28900
H530        H  0.77002509  0.26073109  0.32312665     0.28900
H531        H  0.73188222  0.18853313  0.33378791     0.19500
H532        H  0.76715863  0.23459603  0.41487690     0.19500
C533        C  0.27184513  0.19018783  0.37357514    -0.06300
C534        C  0.25960561  0.19594709  0.39811580    -0.17500
C535        C  0.23699288  0.21475504  0.40044752     0.10900
C536        C  0.22679846  0.22875604  0.37784127    -0.06300
C537        C  0.23902538  0.22297816  0.35329709    -0.17500
C538        C  0.26164199  0.20417608  0.35096645     0.10900
S539        S  0.22114554  0.21873398  0.43248089    -0.32500
S540        S  0.27751675  0.20023066  0.31894024    -0.32500
H541        H  0.30528999  0.19679572  0.32826165     0.28900
H542        H  0.19338407  0.22229960  0.42317260     0.28900
H543        H  0.26711299  0.18498535  0.41548968     0.19500
H544        H  0.23153553  0.23395340  0.33592414     0.19500
C545        C  0.26928357  0.73333112  0.12271309    -0.06300
C546        C  0.25967668  0.72353458  0.14719205    -0.17500
C547        C  0.24009050  0.70146829  0.14905427     0.10900
C548        C  0.22903240  0.68916857  0.12587083    -0.06300
C549        C  0.23861825  0.69898545  0.10139139    -0.17500
C550        C  0.25819710  0.72105968  0.09953022     0.10900
S551        S  0.23167750  0.68891875  0.18159802    -0.32500
S552        S  0.26658709  0.73364695  0.06699381    -0.32500
H553        H  0.26791551  0.76229496  0.07422233     0.28900
H554        H  0.23050050  0.66025030  0.17441789     0.28900
H555        H  0.26828301  0.73245132  0.16511825     0.19500
H556        H  0.23001879  0.69005785  0.08346420     0.19500
C557        C  0.72693553  0.72963836  0.12830260    -0.06300
C558        C  0.73403143  0.71868865  0.10350496    -0.17500
C559        C  0.75662173  0.69994512  0.10032122     0.10900
C560        C  0.77229022  0.69115798  0.12255458    -0.06300
C561        C  0.76518505  0.70209811  0.14735647    -0.17500
C562        C  0.74259151  0.72084257  0.15053893     0.10900
S563        S  0.76528721  0.68959985  0.06717104    -0.32500
S564        S  0.73390920  0.73119511  0.18368409    -0.32500
H565        H  0.70450325  0.73120936  0.17966549     0.28900
H566        H  0.79469796  0.68969182  0.07115802     0.28900
H567        H  0.72251735  0.72558626  0.08623183     0.19500
H568        H  0.77670177  0.69520510  0.16462722     0.19500
C569        C  0.27260162  0.73007396  0.37319988    -0.06300
C570        C  0.26498921  0.71796956  0.39739640    -0.17500
C571        C  0.24294728  0.69832558  0.39927786     0.10900
C572        C  0.22838434  0.68974842  0.37630362    -0.06300
C573        C  0.23602190  0.70182673  0.35210219    -0.17500
C574        C  0.25807740  0.72145534  0.35021945     0.10900
S575        S  0.23342045  0.68659679  0.43181884    -0.32500
S576        S  0.26767290  0.73311706  0.31767421    -0.32500
H577        H  0.29689980  0.73378183  0.32267395     0.28900
H578        H  0.20417658  0.68604620  0.42689671     0.28900
H579        H  0.27561806  0.72464838  0.41522250     0.19500
H580        H  0.22538880  0.69515204  0.33427882     0.19500
C581        C  0.72852464  0.73128291  0.37323907    -0.06300
C582        C  0.73715559  0.72095759  0.39784433    -0.17500
C583        C  0.75894030  0.70114466  0.40005917     0.10900
C584        C  0.77206041  0.69064383  0.37708570    -0.06300
C585        C  0.76344885  0.70099040  0.35248166    -0.17500
C586        C  0.74166963  0.72080962  0.35026720     0.10900
S587        S  0.77006101  0.69161727  0.43279592    -0.32500
S588        S  0.73057521  0.73036409  0.31752996    -0.32500
H589        H  0.70166091  0.73208265  0.32371767     0.28900
H590        H  0.79896192  0.68981839  0.42657281     0.28900
H591        H  0.72750332  0.72913151  0.41561324     0.19500
H592        H  0.77309202  0.69281144  0.33471201     0.19500
O593        O  0.53124860  0.84768604  0.97177204    -0.73200
O594        O  0.47163214  0.84801635  0.52787932    -0.74100
O595        O  0.53111109  0.84732159  0.52831561    -0.62800
O596        O  0.47171563  0.84794087  0.97156496    -0.71200
O597        O  0.47118904  0.80103622  0.97173811    -0.70700
O598        O  0.53088284  0.80041715  0.52787078    -0.62000
O599        O  0.47064539  0.80111500  0.52739955    -0.74500
O600        O  0.53142380  0.80077945  0.97196152    -0.73300
Cu601      Cu  0.50148413  0.84937946  0.49988351     1.04600
Cu602      Cu  0.50106728  0.79919350  0.99974148     1.04300
C603        C  0.54049048  0.82424786  0.96282438     0.93000
C604        C  0.46174703  0.82467546  0.53644777     0.92200
C605        C  0.54002868  0.82370915  0.53724727     0.84300
C606        C  0.46215161  0.82453659  0.96273364     0.90600
N607        N  0.64867779  0.86578305  0.83334080    -0.27500
N608        N  0.62368199  0.87465947  0.84154285    -0.35400
C609        C  0.61506699  0.89596956  0.82594738     0.00800
C610        C  0.63582204  0.90095069  0.80735987     0.06900
C611        C  0.65686679  0.88155685  0.81269658    -0.06200
H612        H  0.59531084  0.90724952  0.82819994     0.07500
H613        H  0.67639473  0.87862403  0.80194750     0.08700
Cu614      Cu  0.60273309  0.85781300  0.87397289     0.44200
Cu615      Cu  0.66945969  0.83100268  0.84883431     0.42000
Cu616      Cu  0.63074758  0.79207707  0.89841199     0.43900
N617        N  0.58660913  0.83683254  0.90670372    -0.34900
N618        N  0.59611442  0.81205098  0.91479620    -0.29100
C619        C  0.58104577  0.80363181  0.93581224    -0.05200
C620        C  0.56145253  0.82435073  0.94152461     0.07000
C621        C  0.56556379  0.84512246  0.92274369     0.00800
H622        H  0.58460049  0.78419145  0.94653582     0.08400
H623        H  0.55388295  0.86466542  0.92068799     0.07500
N624        N  0.66831239  0.77834727  0.88203925    -0.36300
N625        N  0.68272004  0.79265685  0.86419729    -0.28500
C626        C  0.70618444  0.77809681  0.85798805    -0.03800
C627        C  0.70642416  0.75334450  0.87251595     0.04800
C628        C  0.68225098  0.75440805  0.88774616     0.02900
H629        H  0.72207604  0.78524089  0.84419024     0.08000
H630        H  0.67527027  0.73887705  0.90197899     0.06900
N631        N  0.40539017  0.81193355  0.91582322    -0.27500
N632        N  0.41400352  0.83721135  0.90815254    -0.35400
C633        C  0.43530908  0.84569263  0.92381024     0.00800
C634        C  0.44060694  0.82457880  0.94192725     0.06900
C635        C  0.42138034  0.80343970  0.93623834    -0.06200
H636        H  0.44639213  0.86560247  0.92188571     0.07500
H637        H  0.41876221  0.78360179  0.94656270     0.08700
Cu638      Cu  0.39703419  0.85866532  0.87622484     0.44200
Cu639      Cu  0.37085403  0.79107572  0.89956591     0.42000
Cu640      Cu  0.33147794  0.83057304  0.85080207     0.43900
N641        N  0.37645606  0.87495442  0.84348830    -0.34900
N642        N  0.35178253  0.86551060  0.83500787    -0.29100
C643        C  0.34385980  0.88064401  0.81385864    -0.05200
C644        C  0.36478972  0.90017630  0.80851067     0.07000
C645        C  0.38516046  0.89598543  0.82762600     0.00800
H646        H  0.32465933  0.87712529  0.80274594     0.08400
H647        H  0.40474912  0.90753543  0.82999013     0.07500
N648        N  0.31852082  0.79184961  0.86564060    -0.36300
N649        N  0.33316085  0.77707651  0.88299373    -0.28500
C650        C  0.31928688  0.75287163  0.88809030    -0.03800
C651        C  0.29489182  0.75217061  0.87299402     0.04800
C652        C  0.29500292  0.77744938  0.85924802     0.02900
H653        H  0.32642116  0.73692666  0.90185744     0.08000
H654        H  0.27895634  0.78510580  0.84586044     0.06900
N655        N  0.64670347  0.86415506  0.66726650    -0.27500
N656        N  0.62163897  0.87294128  0.65918440    -0.35400
C657        C  0.61345861  0.89487640  0.67417922     0.00800
C658        C  0.63460942  0.90034543  0.69223603     0.06900
C659        C  0.65540648  0.88060508  0.68723963    -0.06200
H660        H  0.59373137  0.90619445  0.67189035     0.07500
H661        H  0.67506954  0.87785572  0.69783501     0.08700
Cu662      Cu  0.60030914  0.85527078  0.62755345     0.44200
Cu663      Cu  0.66677261  0.82864464  0.65253961     0.42000
Cu664      Cu  0.62734913  0.78849504  0.60418550     0.43900
N665        N  0.58477691  0.83464086  0.59456874    -0.34900
N666        N  0.59382992  0.80960739  0.58670718    -0.29100
C667        C  0.57929529  0.80184018  0.56513778    -0.05200
C668        C  0.56059301  0.82324908  0.55888905     0.07000
C669        C  0.56463070  0.84371848  0.57791389     0.00800
H670        H  0.58254442  0.78231629  0.55446888     0.08400
H671        H  0.55346307  0.86358149  0.57975607     0.07500
N672        N  0.66497552  0.77490708  0.62087788    -0.36300
N673        N  0.67969777  0.78984137  0.63804677    -0.28500
C674        C  0.70363292  0.77587479  0.64387349    -0.03800
C675        C  0.70391515  0.75078068  0.62986347     0.04800
C676        C  0.67917436  0.75106403  0.61531694     0.02900
H677        H  0.71998534  0.78386010  0.65677522     0.08000
H678        H  0.67220905  0.73528551  0.60132928     0.06900
N679        N  0.40343742  0.81356968  0.58184032    -0.27500
N680        N  0.41391238  0.83746043  0.59116157    -0.35400
C681        C  0.43608169  0.84523864  0.57625849     0.00800
C682        C  0.43997379  0.82500343  0.55698366     0.06900
C683        C  0.41901307  0.80519661  0.56113454    -0.06200
H684        H  0.44874290  0.86396286  0.57952003     0.07500
H685        H  0.41499979  0.78637223  0.54963555     0.08700
Cu686      Cu  0.39824436  0.85767531  0.62436964     0.44200
Cu687      Cu  0.36756595  0.79415340  0.59670941     0.42000
Cu688      Cu  0.33242758  0.82945494  0.65030645     0.43900
N689        N  0.37807885  0.87332458  0.65761287    -0.34900
N690        N  0.35347608  0.86382666  0.66623518    -0.29100
C691        C  0.34549212  0.87915566  0.68720897    -0.05200
C692        C  0.36628175  0.89887427  0.69231174     0.07000
C693        C  0.38667983  0.89458453  0.67326243     0.00800
H694        H  0.32616690  0.87586254  0.69818993     0.08400
H695        H  0.40604145  0.90643664  0.67060566     0.07500
N696        N  0.31711451  0.79300531  0.63278035    -0.36300
N697        N  0.33011498  0.77998042  0.61325007    -0.28500
C698        C  0.31514967  0.75696772  0.60645794    -0.03800
C699        C  0.29136610  0.75555678  0.62229258     0.04800
C700        C  0.29354799  0.77859076  0.63896875     0.02900
H701        H  0.32144129  0.74211907  0.59138077     0.08000
H702        H  0.27901393  0.78448447  0.65447642     0.06900
O703        O  0.61198608  0.99137867  0.72122666    -0.73200
O704        O  0.61217323  0.93193438  0.77786115    -0.74100
O705        O  0.61264790  0.99140834  0.77777626    -0.62800
O706        O  0.61153630  0.93183613  0.72153125    -0.71200
O707        O  0.65846805  0.93124919  0.72147180    -0.70700
O708        O  0.65957400  0.99146590  0.77706306    -0.62000
O709        O  0.65908840  0.93131857  0.77712588    -0.74500
O710        O  0.65890832  0.99143013  0.72124001    -0.73300
Cu711      Cu  0.61043745  0.96168496  0.74960562     1.04600
Cu712      Cu  0.66064497  0.96138013  0.74919629     1.04300
C713        C  0.63544069  0.00056348  0.71217927     0.93000
C714        C  0.63567288  0.92236258  0.78644288     0.92200
C715        C  0.63626867  0.00056251  0.78646403     0.84300
C716        C  0.63486631  0.92217453  0.71268685     0.90600
O717        O  0.34186337  0.93001185  0.77762749    -0.73200
O718        O  0.34268254  0.98973296  0.72149824    -0.74100
O719        O  0.34265975  0.92950881  0.72191489    -0.62800
O720        O  0.34188358  0.99016492  0.77701184    -0.71200
O721        O  0.38881520  0.98979627  0.77786430    -0.70700
O722        O  0.38959464  0.92978723  0.72204117    -0.62000
O723        O  0.38961531  0.98935055  0.72161074    -0.74500
O724        O  0.38878272  0.93030392  0.77850420    -0.73300
Cu725      Cu  0.34063785  0.95982098  0.74947663     1.04600
Cu726      Cu  0.39085648  0.95977862  0.75001688     1.04300
C727        C  0.36517936  0.92107126  0.78716293     0.93000
C728        C  0.36624636  0.99889355  0.71270923     0.92200
C729        C  0.36620356  0.92034183  0.71310301     0.84300
C730        C  0.36524075  0.99938619  0.78620452     0.90600
O731        O  0.52927886  0.07262646  0.52659476    -0.73200
O732        O  0.46891248  0.07283523  0.97114667    -0.74100
O733        O  0.52839752  0.07270742  0.97024065    -0.62800
O734        O  0.46971530  0.07311644  0.52763534    -0.71200
O735        O  0.46972049  0.12001961  0.52719668    -0.70700
O736        O  0.52880058  0.11961557  0.97057514    -0.62000
O737        O  0.46867490  0.11975237  0.97142707    -0.74500
O738        O  0.52996375  0.11953140  0.52623702    -0.73300
Cu739      Cu  0.49903690  0.07117205  0.99890641     1.04600
Cu740      Cu  0.49927172  0.12136410  0.99885489     1.04300
C741        C  0.53907670  0.09600528  0.53518140     0.93000
C742        C  0.45952321  0.09629515  0.96237819     0.92200
C743        C  0.53778297  0.09617601  0.96140167     0.84300
C744        C  0.46068174  0.09668263  0.53656915     0.90600
N745        N  0.35244999  0.05720616  0.83162911    -0.27500
N746        N  0.37694408  0.04778290  0.84057810    -0.35400
C747        C  0.38537967  0.02594642  0.82560806     0.00800
C748        C  0.36498993  0.02116500  0.80667379     0.06900
C749        C  0.34434586  0.04122433  0.81110254    -0.06200
H750        H  0.40472261  0.01414763  0.82856729     0.07500
H751        H  0.32518706  0.04443326  0.79984847     0.08700
Cu752      Cu  0.39738313  0.06425413  0.87327875     0.44200
Cu753      Cu  0.33224978  0.09265815  0.84629036     0.42000
Cu754      Cu  0.36915625  0.12924216  0.89867766     0.43900
N755        N  0.41318464  0.08440953  0.90642166    -0.34900
N756        N  0.40357433  0.10896942  0.91493375    -0.29100
C757        C  0.41862065  0.11703827  0.93606316    -0.05200
C758        C  0.43830062  0.09629270  0.94137347     0.07000
C759        C  0.43427803  0.07587400  0.92227956     0.00800
H760        H  0.41509579  0.13631639  0.94703879     0.08400
H761        H  0.44613716  0.05649940  0.91979879     0.07500
N762        N  0.33223887  0.14361122  0.88172323    -0.36300
N763        N  0.31877762  0.13044729  0.86251337    -0.28500
C764        C  0.29553515  0.14528327  0.85618300    -0.03800
C765        C  0.29439154  0.16882389  0.87224716     0.04800
C766        C  0.31779811  0.16695393  0.88835214     0.02900
H767        H  0.28028057  0.13905115  0.84140451     0.08000
H768        H  0.32384437  0.18143480  0.90384293     0.06900
N769        N  0.59496412  0.10901464  0.91517074    -0.27500
N770        N  0.58629548  0.08392730  0.90705219    -0.35400
C771        C  0.56464236  0.07541091  0.92226780     0.00800
C772        C  0.55922726  0.09633584  0.94054715     0.06900
C773        C  0.57869984  0.11738101  0.93540493    -0.06200
H774        H  0.55354030  0.05555317  0.92004230     0.07500
H775        H  0.58143928  0.13695735  0.94611390     0.08700
Cu776      Cu  0.60397236  0.06276319  0.87531814     0.44200
Cu777      Cu  0.63020474  0.12949901  0.90015550     0.42000
Cu778      Cu  0.66936804  0.09122121  0.85018124     0.43900
N779        N  0.62476800  0.04665022  0.84266131    -0.34900
N780        N  0.64934439  0.05630004  0.83416074    -0.29100
C781        C  0.65740385  0.04119165  0.81304685    -0.05200
C782        C  0.63662483  0.02148560  0.80774803     0.07000
C783        C  0.61624487  0.02552160  0.82685214     0.00800
H784        H  0.67658746  0.04482759  0.80194493     0.08400
H785        H  0.59675700  0.01380195  0.82924140     0.07500
N786        N  0.68298029  0.12874823  0.86692422    -0.36300
N787        N  0.66862003  0.14287701  0.88492526    -0.28500
C788        C  0.68304835  0.16637139  0.89132253    -0.03800
C789        C  0.70778359  0.16696693  0.87677255     0.04800
C790        C  0.70683372  0.14293284  0.86131800     0.02900
H791        H  0.67577633  0.18209329  0.90520875     0.08000
H792        H  0.72235998  0.13624516  0.84696790     0.06900
N793        N  0.64849845  0.05610861  0.66421007    -0.27500
N794        N  0.62375149  0.04673201  0.65584240    -0.35400
C795        C  0.61504751  0.02581550  0.67186916     0.00800
C796        C  0.63551535  0.02162679  0.69093138     0.06900
C797        C  0.65647162  0.04105878  0.68539160    -0.06200
H798        H  0.59549667  0.01419436  0.66954279     0.07500
H799        H  0.67584230  0.04443459  0.69628712     0.08700
Cu800      Cu  0.60346418  0.06262515  0.62262131     0.44200
Cu801      Cu  0.66927426  0.09040294  0.64782650     0.42000
Cu802      Cu  0.63178428  0.12824020  0.59671495     0.43900
N803        N  0.58718667  0.08335290  0.58981005    -0.34900
N804        N  0.59665051  0.10799857  0.58127383    -0.29100
C805        C  0.58089593  0.11637101  0.56066687    -0.05200
C806        C  0.56088487  0.09579804  0.55572800     0.07000
C807        C  0.56551242  0.07512223  0.57446847     0.00800
H808        H  0.58415529  0.13574676  0.54976615     0.08400
H809        H  0.55364364  0.05576649  0.57709055     0.07500
N810        N  0.66979347  0.14170019  0.61268747    -0.36300
N811        N  0.68363689  0.12766848  0.63110495    -0.28500
C812        C  0.70733984  0.14187472  0.63721336    -0.03800
C813        C  0.70872372  0.16583448  0.62166806     0.04800
C814        C  0.68438784  0.16516218  0.60652960     0.02900
H815        H  0.72244087  0.13528503  0.65200878     0.08000
H816        H  0.67746755  0.18082996  0.59242572     0.06900
N817        N  0.35458325  0.05753826  0.66786561    -0.27500
N818        N  0.37888805  0.04781841  0.65876694    -0.35400
C819        C  0.38690176  0.02551736  0.67339820     0.00800
C820        C  0.36640314  0.02076259  0.69225886     0.06900
C821        C  0.34618375  0.04133052  0.68813071    -0.06200
H822        H  0.40605190  0.01345665  0.67031334     0.07500
H823        H  0.32714619  0.04477416  0.69949083     0.08700
Cu824      Cu  0.39949308  0.06482499  0.62634905     0.44200
Cu825      Cu  0.33499525  0.09369181  0.65381338     0.42000
Cu826      Cu  0.37215816  0.13143619  0.60240353     0.43900
N827        N  0.41517400  0.08543074  0.59335356    -0.34900
N828        N  0.40596950  0.11034096  0.58527175    -0.29100
C829        C  0.42083984  0.11822900  0.56394093    -0.05200
C830        C  0.43993377  0.09704402  0.55806821     0.07000
C831        C  0.43575940  0.07656386  0.57706756     0.00800
H832        H  0.41756974  0.13769292  0.55317197     0.08400
H833        H  0.44712443  0.05684076  0.57914410     0.07500
N834        N  0.33546681  0.14611133  0.62020338    -0.36300
N835        N  0.32165664  0.13211050  0.63865314    -0.28500
C836        C  0.29814528  0.14651473  0.64503788    -0.03800
C837        C  0.29717007  0.17097770  0.63007501     0.04800
C838        C  0.32109705  0.16980186  0.61439465     0.02900
H839        H  0.28245045  0.13914125  0.65890067     0.08000
H840        H  0.32735994  0.18485288  0.59944087     0.06900
O841        O  0.96874222  0.57371843  0.72187813    -0.73200
O842        O  0.02837093  0.57300253  0.77839246    -0.74100
O843        O  0.96883141  0.57335871  0.77841983    -0.62800
O844        O  0.02824469  0.57294887  0.72204699    -0.71200
O845        O  0.02927163  0.61984625  0.72255912    -0.70700
O846        O  0.96873787  0.62026495  0.77820878    -0.62000
O847        O  0.02897540  0.61990621  0.77824246    -0.74500
O848        O  0.96903733  0.62062324  0.72232675    -0.73300
Cu849      Cu  0.99849218  0.57161638  0.75018390     1.04600
Cu850      Cu  0.99898230  0.62180023  0.75033598     1.04300
C851        C  0.95980353  0.59734440  0.71299839     0.93000
C852        C  0.03799601  0.59638445  0.78721511     0.92200
C853        C  0.95964920  0.59682054  0.78737534     0.84300
C854        C  0.03810204  0.59629099  0.71344193     0.90600
O855        O  0.03102041  0.34776749  0.72240828    -0.73200
O856        O  0.97214725  0.34865245  0.77955857    -0.74100
O857        O  0.03164175  0.34811620  0.77888645    -0.62800
O858        O  0.97145465  0.34858715  0.72319124    -0.71200
O859        O  0.97057452  0.30168787  0.72360136    -0.70700
O860        O  0.03156320  0.30119927  0.77867789    -0.62000
O861        O  0.97142536  0.30174770  0.77927766    -0.74500
O862        O  0.03082986  0.30086372  0.72290850    -0.73300
Cu863      Cu  0.00161708  0.34992830  0.75100538     1.04600
Cu864      Cu  0.00110646  0.29973912  0.75112338     1.04300
C865        C  0.04000119  0.32415523  0.71354548     0.93000
C866        C  0.96256275  0.32526573  0.78838903     0.92200
C867        C  0.04084135  0.32460573  0.78772318     0.84300
C868        C  0.96158743  0.32523511  0.71459786     0.90600
O869        O  0.11126898  0.49022221  0.97133425    -0.73200
O870        O  0.11060926  0.43139698  0.52850022    -0.74100
O871        O  0.11036428  0.49098359  0.52778724    -0.62800
O872        O  0.11141318  0.43073259  0.97225620    -0.71200
O873        O  0.15834601  0.43045651  0.97313867    -0.70700
O874        O  0.15729735  0.49147042  0.52794540    -0.62000
O875        O  0.15754263  0.43123548  0.52863108    -0.74500
O876        O  0.15818655  0.49061003  0.97224832    -0.73300
Cu877      Cu  0.10925797  0.46085812  0.49995819     1.04600
Cu878      Cu  0.15947617  0.46098386  0.50052997     1.04300
C879        C  0.13486673  0.49946494  0.96266078     0.93000
C880        C  0.13402424  0.42198953  0.53743610     0.92200
C881        C  0.13370120  0.50059598  0.53668357     0.84300
C882        C  0.13500848  0.42114062  0.96397991     0.90600
N883        N  0.09493008  0.60873523  0.83401278    -0.27500
N884        N  0.08620705  0.58349867  0.84169615    -0.35400
C885        C  0.06481697  0.57513160  0.82608887     0.00800
C886        C  0.05957754  0.59627344  0.80798798     0.06900
C887        C  0.07892323  0.61731759  0.81363787    -0.06200
H888        H  0.05364771  0.55527285  0.82802833     0.07500
H889        H  0.08162193  0.63713766  0.80330206     0.08700
Cu890      Cu  0.10314706  0.56190554  0.87355140     0.44200
Cu891      Cu  0.12965903  0.62937964  0.85016756     0.42000
Cu892      Cu  0.16893951  0.58959878  0.89878468     0.43900
N893        N  0.12369689  0.54550343  0.90624913    -0.34900
N894        N  0.14844508  0.55481780  0.91466314    -0.29100
C895        C  0.15631832  0.53969167  0.93582855    -0.05200
C896        C  0.13528503  0.52029677  0.94125885     0.07000
C897        C  0.11489928  0.52455769  0.92216972     0.00800
H898        H  0.17556219  0.54312399  0.94689685     0.08400
H899        H  0.09523589  0.51312356  0.91986912     0.07500
N900        N  0.18212028  0.62823314  0.88392023    -0.36300
N901        N  0.16751791  0.64311504  0.86662021    -0.28500
C902        C  0.18153479  0.66723226  0.86150017    -0.03800
C903        C  0.20598529  0.66776105  0.87652583     0.04800
C904        C  0.20575463  0.64247327  0.89025543     0.02900
H905        H  0.17445279  0.68324267  0.84777596     0.08000
H906        H  0.22178601  0.63470925  0.90360211     0.06900
N907        N  0.09635892  0.31143482  0.83550491    -0.27500
N908        N  0.08700493  0.33614595  0.84387777    -0.35400
C909        C  0.06613571  0.34490062  0.82786448     0.00800
C910        C  0.06198639  0.32447106  0.80880372     0.06900
C911        C  0.08136484  0.30349156  0.81430134    -0.06200
H912        H  0.05449000  0.36442066  0.83023323     0.07500
H913        H  0.08469291  0.28411195  0.80342833     0.08700
Cu914      Cu  0.10283359  0.35615091  0.87707529     0.44200
Cu915      Cu  0.13032603  0.29074537  0.85215443     0.42000
Cu916      Cu  0.16733877  0.32696772  0.90476125     0.43900
N917        N  0.12325494  0.37252795  0.90981403    -0.34900
N918        N  0.14754278  0.36284814  0.91901250    -0.29100
C919        C  0.15568400  0.37889462  0.93948832    -0.05200
C920        C  0.13526352  0.39925616  0.94361625     0.07000
C921        C  0.11497874  0.39458528  0.92456850     0.00800
H922        H  0.17468225  0.37550787  0.95093251     0.08400
H923        H  0.09580610  0.40659719  0.92139440     0.07500
N924        N  0.18035088  0.28890090  0.88875733    -0.36300
N925        N  0.16685894  0.27587730  0.86948142    -0.28500
C926        C  0.18106900  0.25236030  0.86295394    -0.03800
C927        C  0.20435376  0.25022925  0.87918531     0.04800
C928        C  0.20337873  0.27379863  0.89522543     0.02900
H929        H  0.17499664  0.23797906  0.84738455     0.08000
H930        H  0.21865563  0.27991125  0.91002487     0.06900
N931        N  0.09506149  0.31060071  0.66515876    -0.27500
N932        N  0.08569631  0.33539524  0.65693190    -0.35400
C933        C  0.06494854  0.34416574  0.67307026     0.00800
C934        C  0.06082213  0.32374066  0.69212060     0.06900
C935        C  0.08011964  0.30267898  0.68644023    -0.06200
H936        H  0.05345656  0.36380047  0.67087062     0.07500
H937        H  0.08350951  0.28331328  0.69733019     0.08700
Cu938      Cu  0.10134822  0.35603248  0.62396355     0.44200
Cu939      Cu  0.12924688  0.28983952  0.64833474     0.42000
Cu940      Cu  0.16623150  0.32784520  0.59686933     0.43900
N941        N  0.12178169  0.37313030  0.59151624    -0.34900
N942        N  0.14621449  0.36364329  0.58250672    -0.29100
C943        C  0.15445895  0.37984486  0.56218256    -0.05200
C944        C  0.13401059  0.40016447  0.55793226     0.07000
C945        C  0.11353485  0.39526828  0.57678032     0.00800
H946        H  0.17357540  0.37658742  0.55088918     0.08400
H947        H  0.09425311  0.40713662  0.57979954     0.07500
N948        N  0.18005931  0.28976719  0.61243575    -0.36300
N949        N  0.16632497  0.27568154  0.63088202    -0.28500
C950        C  0.18097877  0.25222355  0.63689398    -0.03800
C951        C  0.20501121  0.25128021  0.62134648     0.04800
C952        C  0.20380697  0.27564647  0.60625976     0.02900
H953        H  0.17478821  0.23713780  0.65183368     0.08000
H954        H  0.21945600  0.28311417  0.59239230     0.06900
N955        N  0.09590292  0.60774927  0.66754286    -0.27500
N956        N  0.08555012  0.58375408  0.65834021    -0.35400
C957        C  0.06361213  0.57578926  0.67346638     0.00800
C958        C  0.05975064  0.59600876  0.69277236     0.06900
C959        C  0.08048681  0.61599672  0.68839377    -0.06200
H960        H  0.05106676  0.55696594  0.67032401     0.07500
H961        H  0.08443193  0.63489445  0.69981106     0.08700
Cu962      Cu  0.10114797  0.56368815  0.62499961     0.44200
Cu963      Cu  0.13138520  0.62751966  0.65227017     0.42000
Cu964      Cu  0.16670024  0.59237754  0.59868959     0.43900
N965        N  0.12143825  0.54801507  0.59180658    -0.34900
N966        N  0.14595220  0.55765353  0.58309314    -0.29100
C967        C  0.15407917  0.54218720  0.56225270    -0.05200
C968        C  0.13347512  0.52222691  0.55732714     0.07000
C969        C  0.11303497  0.52652620  0.57633681     0.00800
H970        H  0.17336452  0.54555686  0.55123292     0.08400
H971        H  0.09378152  0.51452363  0.57909533     0.07500
N972        N  0.18164308  0.62911070  0.61596968    -0.36300
N973        N  0.16856049  0.64208226  0.63548296    -0.28500
C974        C  0.18331565  0.66526385  0.64217039    -0.03800
C975        C  0.20705556  0.66683883  0.62629401     0.04800
C976        C  0.20505899  0.64372646  0.60969092     0.02900
H977        H  0.17694077  0.68007736  0.65724983     0.08000
H978        H  0.21964504  0.63788480  0.59421633     0.06900
O979        O  0.88751951  0.43022978  0.97220591    -0.73200
O980        O  0.88839977  0.48953135  0.52875202    -0.74100
O981        O  0.88811889  0.42998114  0.52878361    -0.62800
O982        O  0.88785488  0.48968859  0.97243919    -0.71200
O983        O  0.84093582  0.49022004  0.97311371    -0.70700
O984        O  0.84119706  0.42981190  0.52873447    -0.62000
O985        O  0.84146701  0.49000151  0.52875292    -0.74500
O986        O  0.84059470  0.43009659  0.97287939    -0.73300
Cu987      Cu  0.88962170  0.45981147  0.00054321     1.04600
Cu988      Cu  0.83941348  0.46000743  0.00090015     1.04300
C989        C  0.86392040  0.42111217  0.96342751     0.93000
C990        C  0.86503041  0.49911383  0.53758824     0.92200
C991        C  0.86468156  0.42071011  0.53778911     0.84300
C992        C  0.86435243  0.49925509  0.96386640     0.90600
N993        N  0.85070731  0.36591159  0.91522088    -0.27500
N994        N  0.87544106  0.37537980  0.90693825    -0.35400
C995        C  0.88405702  0.39629461  0.92296193     0.00800
C996        C  0.86358102  0.40036303  0.94198295     0.06900
C997        C  0.84265006  0.38091463  0.93639686    -0.06200
H998        H  0.90367349  0.40784031  0.92078225     0.07500
H999        H  0.82334634  0.37737626  0.94734638     0.08700
Cu1000     Cu  0.89630636  0.35923854  0.87429490     0.44200
Cu1001     Cu  0.83041224  0.33132148  0.89888578     0.42000
Cu1002     Cu  0.86942604  0.29286009  0.84904406     0.43900
N1003       N  0.91391168  0.33795366  0.84255809    -0.34900
N1004       N  0.90499297  0.31299533  0.83432372    -0.29100
C1005       C  0.92126894  0.30448871  0.81415013    -0.05200
C1006       C  0.94102076  0.32530546  0.80915720     0.07000
C1007       C  0.93575183  0.34624849  0.82746331     0.00800
H1008       H  0.91834621  0.28498208  0.80337225     0.08400
H1009       H  0.94707918  0.36596526  0.82978766     0.07500
N1010       N  0.83077119  0.27982073  0.86396718    -0.36300
N1011       N  0.81646277  0.29402362  0.88195029    -0.28500
C1012       C  0.79246199  0.28003606  0.88743343    -0.03800
C1013       C  0.79136359  0.25605754  0.87191176     0.04800
C1014       C  0.81615948  0.25647925  0.85744773     0.02900
H1015       H  0.77696139  0.28679111  0.90178308     0.08000
H1016       H  0.82337010  0.24070967  0.84357695     0.06900
N1017       N  0.90404966  0.60924084  0.83537722    -0.27500
N1018       N  0.91360605  0.58453847  0.84362000    -0.35400
C1019       C  0.93465046  0.57615993  0.82761412     0.00800
C1020       C  0.93870690  0.59680032  0.80869599     0.06900
C1021       C  0.91908070  0.61752646  0.81429388    -0.06200
H1022       H  0.94636779  0.55665419  0.82978690     0.07500
H1023       H  0.91548604  0.63688448  0.80345312     0.08700
Cu1024     Cu  0.89748675  0.56381602  0.87648611     0.44200
Cu1025     Cu  0.86943398  0.62929149  0.85171967     0.42000
Cu1026     Cu  0.83065821  0.59066558  0.90149585     0.43900
N1027       N  0.87644433  0.54704932  0.90888913    -0.34900
N1028       N  0.85141309  0.55589604  0.91702774    -0.29100
C1029       C  0.84317214  0.54009490  0.93763779    -0.05200
C1030       C  0.86422496  0.52072270  0.94301179     0.07000
C1031       C  0.88503114  0.52574073  0.92449038     0.00800
H1032       H  0.82360391  0.54298649  0.94832791     0.08400
H1033       H  0.90479621  0.51446976  0.92227084     0.07500
N1034       N  0.81757139  0.62905015  0.88609918    -0.36300
N1035       N  0.83199728  0.64324415  0.86818967    -0.28500
C1036       C  0.81817904  0.66725546  0.86249507    -0.03800
C1037       C  0.79406915  0.66848868  0.87780042     0.04800
C1038       C  0.79421608  0.64375737  0.89236153     0.02900
H1039       H  0.82519821  0.68272278  0.84820757     0.08000
H1040       H  0.77833200  0.63672344  0.90620813     0.06900
N1041       N  0.90572331  0.61149320  0.66381860    -0.27500
N1042       N  0.91476774  0.58648470  0.65588213    -0.35400
C1043       C  0.93499605  0.57739111  0.67243739     0.00800
C1044       C  0.93910919  0.59782908  0.69147139     0.06900
C1045       C  0.92035535  0.61923416  0.68534014    -0.06200
H1046       H  0.94618601  0.55755098  0.67050437     0.07500
H1047       H  0.91715063  0.63874119  0.69604840     0.08700
Cu1048     Cu  0.89921062  0.56593698  0.62288375     0.44200
Cu1049     Cu  0.87211798  0.63259275  0.64646336     0.42000
Cu1050     Cu  0.83279825  0.59246961  0.59789883     0.43900
N1051       N  0.87802014  0.54829430  0.59118005    -0.34900
N1052       N  0.85296026  0.55704956  0.58306229    -0.29100
C1053       C  0.84434022  0.54061332  0.56304562    -0.05200
C1054       C  0.86519008  0.52091445  0.55806938     0.07000
C1055       C  0.88628420  0.52640069  0.57617476     0.00800
H1056       H  0.82469536  0.54333406  0.55241766     0.08400
H1057       H  0.90602896  0.51511564  0.57849529     0.07500
N1058       N  0.81973477  0.63113786  0.61262553    -0.36300
N1059       N  0.83440582  0.64606031  0.62984437    -0.28500
C1060       C  0.82010789  0.66981855  0.63550267    -0.03800
C1061       C  0.79535536  0.67006106  0.62097412     0.04800
C1062       C  0.79573272  0.64502541  0.60687419     0.02900
H1063       H  0.82703149  0.68558506  0.64953227     0.08000
H1064       H  0.77941834  0.63703432  0.59394432     0.06900
N1065       N  0.85177341  0.36512538  0.58576182    -0.27500
N1066       N  0.87650427  0.37456543  0.59411321    -0.35400
C1067       C  0.88514691  0.39549075  0.57807059     0.00800
C1068       C  0.86466221  0.39961907  0.55901355     0.06900
C1069       C  0.84375294  0.38014320  0.56457345    -0.06200
H1070       H  0.90466950  0.40716250  0.58038423     0.07500
H1071       H  0.82438237  0.37672117  0.55369331     0.08700
Cu1072     Cu  0.89691316  0.35874816  0.62730959     0.44200
Cu1073     Cu  0.83108158  0.33079032  0.60216192     0.42000
Cu1074     Cu  0.86886932  0.29298271  0.65307601     0.43900
N1075       N  0.91339550  0.33796366  0.66000882    -0.34900
N1076       N  0.90401880  0.31325932  0.66848056    -0.29100
C1077       C  0.91983660  0.30485865  0.68903395    -0.05200
C1078       C  0.93980281  0.32546669  0.69401519     0.07000
C1079       C  0.93508316  0.34619882  0.67534196     0.00800
H1080       H  0.91663501  0.28544301  0.69988990     0.08400
H1081       H  0.94687613  0.36560803  0.67277734     0.07500
N1082       N  0.83080959  0.27944319  0.63723580    -0.36300
N1083       N  0.81686251  0.29347236  0.61888432    -0.28500
C1084       C  0.79316660  0.27922564  0.61283433    -0.03800
C1085       C  0.79189407  0.25523805  0.62835030     0.04800
C1086       C  0.81628481  0.25594030  0.64341271     0.02900
H1087       H  0.77800378  0.28580022  0.59809985     0.08000
H1088       H  0.82328966  0.24026121  0.65747525     0.06900
C1089       C  0.22827591  0.23029666  0.62288781    -0.06300
C1090       C  0.23599275  0.21990232  0.64775258    -0.17500
C1091       C  0.25875686  0.20132860  0.65090317     0.10900
C1092       C  0.27403106  0.19210348  0.62857822    -0.06300
C1093       C  0.26633293  0.20252411  0.60372028    -0.17500
C1094       C  0.24356279  0.22108234  0.60056836     0.10900
S1095       S  0.26810357  0.19179272  0.68410889    -0.32500
S1096       S  0.23417641  0.23053929  0.56735456    -0.32500
H1097       H  0.20485108  0.23007690  0.57181424     0.28900
H1098       H  0.29742858  0.19201195  0.67963486     0.28900
H1099       H  0.22482407  0.22709878  0.66510379     0.19500
H1100       H  0.27747874  0.19531252  0.58636461     0.19500
C1101       C  0.73047995  0.18829609  0.62275654    -0.06300
C1102       C  0.74016151  0.19715604  0.64752261    -0.17500
C1103       C  0.75950612  0.21934754  0.65006387     0.10900
C1104       C  0.77018767  0.23272766  0.62727312    -0.06300
C1105       C  0.76051491  0.22385824  0.60250839    -0.17500
C1106       C  0.74118224  0.20165981  0.59996624     0.10900
S1107       S  0.76819178  0.23058839  0.68296342    -0.32500
S1108       S  0.73254476  0.19038465  0.56706545    -0.32500
H1109       H  0.73122760  0.16145733  0.57325496     0.28900
H1110       H  0.76952071  0.25952108  0.67680039     0.28900
H1111       H  0.73182061  0.18736418  0.66515962     0.19500
H1112       H  0.76885367  0.23365398  0.58486950     0.19500
C1113       C  0.72958989  0.18938587  0.87615237    -0.06300
C1114       C  0.73983631  0.19827760  0.85159862    -0.17500
C1115       C  0.75925193  0.22045610  0.84948889     0.10900
C1116       C  0.76946104  0.23373587  0.87251495    -0.06300
C1117       C  0.75919688  0.22486166  0.89706441    -0.17500
C1118       C  0.73977304  0.20269516  0.89917556     0.10900
S1119       S  0.76863697  0.23184198  0.81680118    -0.32500
S1120       S  0.73036079  0.19136086  0.93187065    -0.32500
H1121       H  0.72914678  0.16244850  0.92560851     0.28900
H1122       H  0.77002487  0.26073107  0.82312602     0.28900
H1123       H  0.73188366  0.18853335  0.83378929     0.19500
H1124       H  0.76715863  0.23459793  0.91487741     0.19500
C1125       C  0.27184610  0.19018743  0.87357593    -0.06300
C1126       C  0.25960703  0.19594779  0.89811645    -0.17500
C1127       C  0.23699433  0.21475561  0.90044807     0.10900
C1128       C  0.22679939  0.22875573  0.87784152    -0.06300
C1129       C  0.23902586  0.22297700  0.85329730    -0.17500
C1130       C  0.26164246  0.20417483  0.85096693     0.10900
S1131       S  0.22114745  0.21873553  0.93248152    -0.32500
S1132       S  0.27751647  0.20022813  0.81894053    -0.32500
H1133       H  0.30528994  0.19679377  0.82826152     0.28900
H1134       H  0.19338577  0.22230017  0.92317346     0.28900
H1135       H  0.26711522  0.18498605  0.91549166     0.19500
H1136       H  0.23153574  0.23395141  0.83592435     0.19500
C1137       C  0.26928403  0.73333079  0.62271374    -0.06300
C1138       C  0.25967688  0.72353447  0.64719262    -0.17500
C1139       C  0.24009069  0.70146830  0.64905495     0.10900
C1140       C  0.22903283  0.68916834  0.62587153    -0.06300
C1141       C  0.23861890  0.69898489  0.60139202    -0.17500
C1142       C  0.25819780  0.72105911  0.59953088     0.10900
S1143       S  0.23167718  0.68891926  0.68159875    -0.32500
S1144       S  0.26658808  0.73364607  0.56699443    -0.32500
H1145       H  0.26791639  0.76229416  0.57422268     0.28900
H1146       H  0.23050007  0.66025072  0.67441900     0.28900
H1147       H  0.26828329  0.73245165  0.66511932     0.19500
H1148       H  0.23001981  0.69005731  0.58346525     0.19500
C1149       C  0.72693526  0.72963765  0.62830208    -0.06300
C1150       C  0.73403056  0.71868727  0.60350446    -0.17500
C1151       C  0.75662116  0.69994392  0.60032084     0.10900
C1152       C  0.77229037  0.69115772  0.62255406    -0.06300
C1153       C  0.76518573  0.70209843  0.64735595    -0.17500
C1154       C  0.74259192  0.72084274  0.65053827     0.10900
S1155       S  0.76528591  0.68959786  0.56717070    -0.32500
S1156       S  0.73391041  0.73119624  0.68368336    -0.32500
H1157       H  0.70450436  0.73121006  0.67966543     0.28900
H1158       H  0.79469676  0.68969050  0.57115699     0.28900
H1159       H  0.72251654  0.72558385  0.58623227     0.19500
H1160       H  0.77670241  0.69520643  0.66462581     0.19500
C1161       C  0.27260105  0.73007430  0.87320146    -0.06300
C1162       C  0.26498912  0.71796963  0.89739821    -0.17500
C1163       C  0.24294700  0.69832556  0.89927940     0.10900
C1164       C  0.22838365  0.68974885  0.87630525    -0.06300
C1165       C  0.23602096  0.70182756  0.85210397    -0.17500
C1166       C  0.25807645  0.72145608  0.85022114     0.10900
S1167       S  0.23342077  0.68659613  0.93182036    -0.32500
S1168       S  0.26767152  0.73311820  0.81767592    -0.32500
H1169       H  0.29689852  0.73378247  0.82267526     0.28900
H1170       H  0.20417680  0.68604578  0.92689870     0.28900
H1171       H  0.27561716  0.72464741  0.91522242     0.19500
H1172       H  0.22538732  0.69515300  0.83428011     0.19500
C1173       C  0.72852529  0.73128332  0.87323757    -0.06300
C1174       C  0.73715666  0.72095878  0.89784305    -0.17500
C1175       C  0.75894141  0.70114584  0.90005801     0.10900
C1176       C  0.77206106  0.69064428  0.87708465    -0.06300
C1177       C  0.76344922  0.70099019  0.85248043    -0.17500
C1178       C  0.74166996  0.72080941  0.85026580     0.10900
S1179       S  0.77006270  0.69161937  0.93279483    -0.32500
S1180       S  0.73057509  0.73036301  0.81752846    -0.32500
H1181       H  0.70166087  0.73208172  0.82371645     0.28900
H1182       H  0.79896346  0.68981989  0.92657124     0.28900
H1183       H  0.72750494  0.72913299  0.91561144     0.19500
H1184       H  0.77309196  0.69281083  0.83471116     0.19500
loop_ 
_geom_bond_atom_site_label_1 
_geom_bond_atom_site_label_2 
_geom_bond_distance 
_geom_bond_site_symmetry_2 
_ccdc_geom_bond_type 
O1           C11   1.277       .  A
O1         Cu601   2.009       .  S
O2           C12   1.277       .  A
O2           Cu9   2.007   1_554  S
O3           C13   1.278       .  A
O3           Cu9   2.016   1_554  S
O4           C14   1.278       .  A
O4         Cu601   2.015       .  S
O5           C14   1.277       .  A
O5          Cu10   2.008       .  S
O6           C13   1.277       .  A
O6         Cu602   2.010   1_554  S
O7           C12   1.278       .  A
O7         Cu602   2.015   1_554  S
O8           C11   1.278       .  A
O8          Cu10   2.017       .  S
Cu9         O593   2.009       .  S
Cu9         O596   2.015       .  S
Cu9        Cu602   2.376       .  S
Cu10        O598   2.010       .  S
Cu10        O599   2.015       .  S
Cu10       Cu601   2.376       .  S
C11          C28   1.469       .  S
C12          C90   1.467       .  S
C13          C76   1.469       .  S
C14          C42   1.469       .  S
N15          N16   1.323       .  A
N15          C19   1.345       .  A
N15         Cu23   2.074       .  S
N16          C17   1.346       .  A
N16         Cu22   2.083       .  S
C17          C18   1.384       .  A
C17          H20   1.083       .  S
C18         C122   1.469       .  S
C18          C19   1.382       .  A
C19          H21   1.083       .  S
Cu22         N25   2.083       .  S
Cu23         N33   2.074       .  S
Cu24         N26   2.068       .  S
Cu24         N32   2.068       .  S
N25          N26   1.322       .  A
N25          C29   1.346       .  A
N26          C27   1.345       .  A
C27          C28   1.381       .  A
C27          H30   1.083       .  S
C28          C29   1.384       .  A
C29          H31   1.083       .  S
N32          N33   1.322       .  A
N32          C36   1.343       .  A
N33          C34   1.345       .  A
C34          C35   1.385       .  A
C34          H37   1.083       .  S
C35         C581   1.479       .  S
C35          C36   1.383       .  A
C36          H38   1.083       .  S
N39          N40   1.323       .  A
N39          C43   1.346       .  A
N39         Cu47   2.081       .  S
N40          C41   1.346       .  A
N40         Cu46   2.076       .  S
C41          C42   1.382       .  A
C41          H44   1.083       .  S
C42          C43   1.383       .  A
C43          H45   1.083       .  S
Cu46         N49   2.077       .  S
Cu47         N57   2.081       .  S
Cu48         N50   2.075       .  S
Cu48         N56   2.075       .  S
N49          N50   1.323       .  A
N49          C53   1.346       .  A
N50          C51   1.345       .  A
C51          C52   1.382       .  A
C51          H54   1.083       .  S
C52         C135   1.469       .  S
C52          C53   1.383       .  A
C53          H55   1.083       .  S
N56          N57   1.322       .  A
N56          C60   1.345       .  A
N57          C58   1.346       .  A
C58          C59   1.387       .  A
C58          H61   1.083       .  S
C59         C569   1.486       .  S
C59          C60   1.386       .  A
C60          H62   1.082       .  S
N63          N64   1.323       .  A
N63          C67   1.344       .  A
N63         Cu71   2.072       .  S
N64          C65   1.346       .  A
N64         Cu70   2.075       .  S
C65          C66   1.383       .  A
C65          H68   1.083       .  S
C66         C124   1.466       .  S
C66          C67   1.381       .  A
C67          H69   1.083       .  S
Cu70         N73   2.075       .  S
Cu71         N81   2.072       .  S
Cu72         N74   2.075       .  S
Cu72         N80   2.075       .  S
N73          N74   1.322       .  A
N73          C77   1.346       .  A
N74          C75   1.346       .  A
C75          C76   1.383       .  A
C75          H78   1.083       .  S
C76          C77   1.383       .  A
C77          H79   1.083       .  S
N80          N81   1.322       .  A
N80          C84   1.344       .  A
N81          C82   1.345       .  A
C82          C83   1.386       .  A
C82          H85   1.082       .  S
C83         C557   1.482       .  S
C83          C84   1.385       .  A
C84          H86   1.083       .  S
N87          N88   1.323       .  A
N87          C91   1.345       .  A
N87         Cu95   2.073       .  S
N88          C89   1.346       .  A
N88         Cu94   2.078       .  S
C89          C90   1.383       .  A
C89          H92   1.083       .  S
C90          C91   1.381       .  A
C91          H93   1.083       .  S
Cu94         N97   2.078       .  S
Cu95        N105   2.074       .  S
Cu96         N98   2.073       .  S
Cu96        N104   2.073       .  S
N97          N98   1.323       .  A
N97         C101   1.346       .  A
N98          C99   1.344       .  A
C99         C100   1.381       .  A
C99         H102   1.083       .  S
C100        C137   1.467       .  S
C100        C101   1.383       .  A
C101        H103   1.083       .  S
N104        N105   1.321       .  A
N104        C108   1.345       .  A
N105        C106   1.345       .  A
C106        C107   1.386       .  A
C106        H109   1.082       .  S
C107        C545   1.483       .  S
C107        C108   1.385       .  A
C108        H110   1.083       .  S
O111        C121   1.278   1_565  A
O111       Cu119   2.016       .  S
O112        C122   1.278       .  A
O112       Cu119   2.014       .  S
O113        C123   1.278   1_565  A
O113       Cu119   2.011       .  S
O114        C124   1.277       .  A
O114       Cu119   2.010       .  S
O115        C124   1.277       .  A
O115       Cu120   2.008       .  S
O116        C123   1.277   1_565  A
O116       Cu120   2.010       .  S
O117        C122   1.278       .  A
O117       Cu120   2.012       .  S
O118        C121   1.278   1_565  A
O118       Cu120   2.013       .  S
Cu119      Cu120   2.376       .  S
C121        C204   1.470       .  S
C123        C190   1.467       .  S
O125        C135   1.277       .  A
O125       Cu133   2.011       .  S
O126        C136   1.277       .  A
O126       Cu133   2.010       .  S
O127        C137   1.277       .  A
O127       Cu133   2.008       .  S
O128        C138   1.277       .  A
O128       Cu133   2.007       .  S
O129        C138   1.277       .  A
O129       Cu134   2.009       .  S
O130        C137   1.277       .  A
O130       Cu134   2.011       .  S
O131        C136   1.278       .  A
O131       Cu134   2.012       .  S
O132        C135   1.278       .  A
O132       Cu134   2.014       .  S
Cu133      Cu134   2.377       .  S
C136        C228   1.467   1_565  S
C138        C156   1.465   1_565  S
O139        C149   1.277       .  A
O139       Cu739   2.009   1_554  S
O140        C150   1.277       .  A
O140       Cu147   2.007       .  S
O141        C151   1.278       .  A
O141       Cu147   2.015       .  S
O142        C152   1.279       .  A
O142       Cu739   2.017   1_554  S
O143        C152   1.277       .  A
O143       Cu740   2.009   1_554  S
O144        C151   1.277       .  A
O144       Cu148   2.007       .  S
O145        C150   1.278       .  A
O145       Cu148   2.012       .  S
O146        C149   1.278       .  A
O146       Cu740   2.014   1_554  S
Cu147       O731   2.009       .  S
Cu147       O734   2.017       .  S
Cu147      Cu148   2.377       .  S
Cu148       O735   2.009       .  S
Cu148       O738   2.014       .  S
C149        C214   1.468       .  S
C150        C166   1.466       .  S
C151        C180   1.468       .  S
C152        C238   1.470       .  S
N153        N154   1.323       .  A
N153        C157   1.345       .  A
N153       Cu161   2.071       .  S
N154        C155   1.345       .  A
N154       Cu160   2.075       .  S
C155        C156   1.382       .  A
C155        H158   1.083       .  S
C156        C157   1.381       .  A
C157        H159   1.083       .  S
Cu160       N163   2.076       .  S
Cu161       N171   2.071       .  S
Cu162       N164   2.063       .  S
Cu162       N170   2.064       .  S
N163        N164   1.322       .  A
N163        C167   1.345       .  A
N164        C165   1.344       .  A
C165        C166   1.380       .  A
C165        H168   1.083       .  S
C166        C167   1.383       .  A
C167        H169   1.083       .  S
N170        N171   1.322       .  A
N170        C174   1.343       .  A
N171        C172   1.344       .  A
C172        C173   1.383       .  A
C172        H175   1.083       .  S
C173        C533   1.472       .  S
C173        C174   1.380       .  A
C174        H176   1.083       .  S
N177        N178   1.323       .  A
N177        C181   1.345       .  A
N177       Cu185   2.075       .  S
N178        C179   1.346       .  A
N178       Cu184   2.076       .  S
C179        C180   1.383       .  A
C179        H182   1.083       .  S
C180        C181   1.382       .  A
C181        H183   1.083       .  S
Cu184       N187   2.076       .  S
Cu185       N195   2.075       .  S
Cu186       N188   2.072       .  S
Cu186       N194   2.073       .  S
N187        N188   1.322       .  A
N187        C191   1.345       .  A
N188        C189   1.345       .  A
C189        C190   1.382       .  A
C189        H192   1.083       .  S
C190        C191   1.382       .  A
C191        H193   1.083       .  S
N194        N195   1.322       .  A
N194        C198   1.344       .  A
N195        C196   1.345       .  A
C196        C197   1.385       .  A
C196        H199   1.082       .  S
C197        C521   1.481       .  S
C197        C198   1.384       .  A
C198        H200   1.083       .  S
N201        N202   1.323       .  A
N201        C205   1.345       .  A
N201       Cu209   2.073       .  S
N202        C203   1.347       .  A
N202       Cu208   2.083       .  S
C203        C204   1.384       .  A
C203        H206   1.083       .  S
C204        C205   1.382       .  A
C205        H207   1.083       .  S
Cu208       N211   2.083       .  S
Cu209       N219   2.073       .  S
Cu210       N212   2.073       .  S
Cu210       N218   2.074       .  S
N211        N212   1.323       .  A
N211        C215   1.346       .  A
N212        C213   1.346       .  A
C213        C214   1.381       .  A
C213        H216   1.083       .  S
C214        C215   1.383       .  A
C215        H217   1.083       .  S
N218        N219   1.322       .  A
N218        C222   1.345       .  A
N219        C220   1.344       .  A
C220        C221   1.384       .  A
C220        H223   1.083       .  S
C221        C509   1.481       .  S
C221        C222   1.385       .  A
C222        H224   1.082       .  S
N225        N226   1.323       .  A
N225        C229   1.345       .  A
N225       Cu233   2.074       .  S
N226        C227   1.346       .  A
N226       Cu232   2.078       .  S
C227        C228   1.383       .  A
C227        H230   1.083       .  S
C228        C229   1.381       .  A
C229        H231   1.083       .  S
Cu232       N235   2.078       .  S
Cu233       N243   2.074       .  S
Cu234       N236   2.078       .  S
Cu234       N242   2.078       .  S
N235        N236   1.323       .  A
N235        C239   1.346       .  A
N236        C237   1.346       .  A
C237        C238   1.383       .  A
C237        H240   1.083       .  S
C238        C239   1.383       .  A
C239        H241   1.083       .  S
N242        N243   1.322       .  A
N242        C246   1.345       .  A
N243        C244   1.345       .  A
C244        C245   1.386       .  A
C244        H247   1.082       .  S
C245        C500   1.485       .  S
C245        C246   1.386       .  A
C246        H248   1.083       .  S
O249        C259   1.278       .  A
O249       Cu257   2.016       .  S
O250        C260   1.278       .  A
O250       Cu257   2.015   1_455  S
O251        C261   1.277       .  A
O251       Cu257   2.010       .  S
O252        C262   1.277       .  A
O252       Cu257   2.009   1_455  S
O253        C262   1.278       .  A
O253       Cu258   2.015   1_455  S
O254        C261   1.278       .  A
O254       Cu258   2.016       .  S
O255        C260   1.277       .  A
O255       Cu258   2.009   1_455  S
O256        C259   1.277       .  A
O256       Cu258   2.010       .  S
Cu257      Cu258   2.376       .  S
C259        C452   1.469       .  S
C260        C294   1.469       .  S
C261        C428   1.469       .  S
C262        C366   1.468       .  S
O263        C273   1.278       .  A
O263       Cu271   2.016       .  S
O264        C274   1.278       .  A
O264       Cu271   2.015   1_655  S
O265        C275   1.277       .  A
O265       Cu271   2.009       .  S
O266        C276   1.277       .  A
O266       Cu271   2.010   1_655  S
O267        C276   1.278       .  A
O267       Cu272   2.013   1_655  S
O268        C275   1.278       .  A
O268       Cu272   2.011       .  S
O269        C274   1.277       .  A
O269       Cu272   2.008   1_655  S
O270        C273   1.277       .  A
O270       Cu272   2.010       .  S
Cu271      Cu272   2.377       .  S
C273        C342   1.469       .  S
C274        C414   1.468       .  S
C275        C318   1.466       .  S
C276        C486   1.469       .  S
O277        C287   1.278       .  A
O277       Cu877   2.015       .  S
O278        C288   1.278       .  A
O278       Cu285   2.014   1_554  S
O279        C289   1.277       .  A
O279       Cu285   2.010   1_554  S
O280        C290   1.277       .  A
O280       Cu877   2.007       .  S
O281        C290   1.277       .  A
O281       Cu878   2.008       .  S
O282        C289   1.277       .  A
O282       Cu286   2.010       .  S
O283        C288   1.277       .  A
O283       Cu286   2.008       .  S
O284        C287   1.277       .  A
O284       Cu878   2.010       .  S
Cu285       O869   2.015       .  S
Cu285       O872   2.007       .  S
Cu285      Cu286   2.377   1_556  S
Cu286       O873   2.008   1_554  S
Cu286       O876   2.010   1_554  S
C287        C304   1.469       .  S
C288        C352   1.468       .  S
C289        C376   1.467       .  S
C290        C328   1.465       .  S
N291        N292   1.323       .  A
N291        C295   1.346       .  A
N291       Cu299   2.081       .  S
N292        C293   1.346       .  A
N292       Cu298   2.076       .  S
C293        C294   1.382       .  A
C293        H296   1.083       .  S
C294        C295   1.383       .  A
C295        H297   1.083       .  S
Cu298       N301   2.077       .  S
Cu299       N309   2.081       .  S
Cu300       N302   2.075       .  S
Cu300       N308   2.075       .  S
N301        N302   1.323       .  A
N301        C305   1.346       .  A
N302        C303   1.345       .  A
C303        C304   1.382       .  A
C303        H306   1.083       .  S
C304        C305   1.383       .  A
C305        H307   1.083       .  S
N308        N309   1.322       .  A
N308        C312   1.345       .  A
N309        C310   1.346       .  A
C310        C311   1.387       .  A
C310        H313   1.083       .  S
C311        C572   1.486       .  S
C311        C312   1.386       .  A
C312        H314   1.082       .  S
N315        N316   1.322       .  A
N315        C319   1.344       .  A
N315       Cu323   2.064       .  S
N316        C317   1.345       .  A
N316       Cu322   2.075       .  S
C317        C318   1.383       .  A
C317        H320   1.083       .  S
C318        C319   1.381       .  A
C319        H321   1.083       .  S
Cu322       N325   2.075       .  S
Cu323       N333   2.064       .  S
Cu324       N326   2.071       .  S
Cu324       N332   2.072       .  S
N325        N326   1.323       .  A
N325        C329   1.344       .  A
N326        C327   1.345       .  A
C327        C328   1.381       .  A
C327        H330   1.083       .  S
C328        C329   1.381       .  A
C329        H331   1.083       .  S
N332        N333   1.322       .  A
N332        C336   1.344       .  A
N333        C334   1.343       .  A
C334        C335   1.380       .  A
C334        H337   1.083       .  S
C335        C536   1.472       .  S
C335        C336   1.383       .  A
C336        H338   1.083       .  S
N339        N340   1.323       .  A
N339        C343   1.346       .  A
N339       Cu347   2.078       .  S
N340        C341   1.346       .  A
N340       Cu346   2.077       .  S
C341        C342   1.383       .  A
C341        H344   1.083       .  S
C342        C343   1.383       .  A
C343        H345   1.083       .  S
Cu346       N349   2.077       .  S
Cu347       N357   2.078       .  S
Cu348       N350   2.075       .  S
Cu348       N356   2.075       .  S
N349        N350   1.323       .  A
N349        C353   1.346       .  A
N350        C351   1.345       .  A
C351        C352   1.382       .  A
C351        H354   1.083       .  S
C352        C353   1.383       .  A
C353        H355   1.083       .  S
N356        N357   1.322       .  A
N356        C360   1.345       .  A
N357        C358   1.345       .  A
C358        C359   1.386       .  A
C358        H361   1.083       .  S
C359        C497   1.485       .  S
C359        C360   1.387       .  A
C360        H362   1.082       .  S
N363        N364   1.323       .  A
N363        C367   1.345       .  A
N363       Cu371   2.074       .  S
N364        C365   1.346       .  A
N364       Cu370   2.079       .  S
C365        C366   1.383       .  A
C365        H368   1.083       .  S
C366        C367   1.381       .  A
C367        H369   1.083       .  S
Cu370       N373   2.079       .  S
Cu371       N381   2.074       .  S
Cu372       N374   2.073       .  S
Cu372       N380   2.073       .  S
N373        N374   1.323       .  A
N373        C377   1.346       .  A
N374        C375   1.345       .  A
C375        C376   1.381       .  A
C375        H378   1.083       .  S
C376        C377   1.383       .  A
C377        H379   1.083       .  S
N380        N381   1.321       .  A
N380        C384   1.345       .  A
N381        C382   1.345       .  A
C382        C383   1.386       .  A
C382        H385   1.082       .  S
C383        C548   1.483       .  S
C383        C384   1.385       .  A
C384        H386   1.083       .  S
O387        C397   1.278       .  A
O387       Cu395   2.012       .  S
O388        C398   1.277       .  A
O388       Cu987   2.010       .  S
O389        C399   1.278       .  A
O389       Cu987   2.015       .  S
O390        C400   1.278       .  A
O390       Cu395   2.012       .  S
O391        C400   1.278       .  A
O391       Cu396   2.012       .  S
O392        C399   1.278       .  A
O392       Cu988   2.013       .  S
O393        C398   1.277       .  A
O393       Cu988   2.008       .  S
O394        C397   1.277       .  A
O394       Cu396   2.010       .  S
Cu395       O980   2.010       .  S
Cu395       O981   2.015       .  S
Cu395      Cu396   2.376       .  S
Cu396       O984   2.013       .  S
Cu396       O985   2.008       .  S
C397        C404   1.468       .  S
C398        C462   1.466       .  S
C399        C476   1.470       .  S
C400        C438   1.469       .  S
N401        N402   1.322       .  A
N401        C405   1.345       .  A
N401       Cu409   2.072       .  S
N402        C403   1.346       .  A
N402       Cu408   2.078       .  S
C403        C404   1.383       .  A
C403        H406   1.083       .  S
C404        C405   1.382       .  A
C405        H407   1.083       .  S
Cu408       N411   2.077       .  S
Cu409       N419   2.073       .  S
Cu410       N412   2.074       .  S
Cu410       N418   2.075       .  S
N411        N412   1.323       .  A
N411        C415   1.346       .  A
N412        C413   1.345       .  A
C413        C414   1.382       .  A
C413        H416   1.083       .  S
C414        C415   1.383       .  A
C415        H417   1.083       .  S
N418        N419   1.322       .  A
N418        C422   1.345       .  A
N419        C420   1.344       .  A
C420        C421   1.384       .  A
C420        H423   1.083       .  S
C421        C524   1.481       .  S
C421        C422   1.385       .  A
C422        H424   1.082       .  S
N425        N426   1.322       .  A
N425        C429   1.345       .  A
N425       Cu433   2.068       .  S
N426        C427   1.346       .  A
N426       Cu432   2.083       .  S
C427        C428   1.385       .  A
C427        H430   1.083       .  S
C428        C429   1.381       .  A
C429        H431   1.083       .  S
Cu432       N435   2.083       .  S
Cu433       N443   2.069       .  S
Cu434       N436   2.073       .  S
Cu434       N442   2.074       .  S
N435        N436   1.323       .  A
N435        C439   1.346       .  A
N436        C437   1.345       .  A
C437        C438   1.382       .  A
C437        H440   1.083       .  S
C438        C439   1.383       .  A
C439        H441   1.083       .  S
N442        N443   1.322       .  A
N442        C446   1.345       .  A
N443        C444   1.343       .  A
C444        C445   1.383       .  A
C444        H447   1.084       .  S
C445        C584   1.479       .  S
C445        C446   1.385       .  A
C446        H448   1.083       .  S
N449        N450   1.322       .  A
N449        C453   1.346       .  A
N449       Cu457   2.075       .  S
N450        C451   1.345       .  A
N450       Cu456   2.074       .  S
C451        C452   1.382       .  A
C451        H454   1.083       .  S
C452        C453   1.383       .  A
C453        H455   1.083       .  S
Cu456       N459   2.074       .  S
Cu457       N467   2.075       .  S
Cu458       N460   2.072       .  S
Cu458       N466   2.073       .  S
N459        N460   1.322       .  A
N459        C463   1.345       .  A
N460        C461   1.345       .  A
C461        C462   1.381       .  A
C461        H464   1.083       .  S
C462        C463   1.382       .  A
C463        H465   1.083       .  S
N466        N467   1.322       .  A
N466        C470   1.345       .  A
N467        C468   1.344       .  A
C468        C469   1.385       .  A
C468        H471   1.083       .  S
C469        C560   1.482       .  S
C469        C470   1.386       .  A
C470        H472   1.082       .  S
N473        N474   1.323       .  A
N473        C477   1.345       .  A
N473       Cu481   2.073       .  S
N474        C475   1.347       .  A
N474       Cu480   2.084       .  S
C475        C476   1.384       .  A
C475        H478   1.083       .  S
C476        C477   1.382       .  A
C477        H479   1.083       .  S
Cu480       N483   2.083       .  S
Cu481       N491   2.073       .  S
Cu482       N484   2.074       .  S
Cu482       N490   2.074       .  S
N483        N484   1.323       .  A
N483        C487   1.346       .  A
N484        C485   1.345       .  A
C485        C486   1.382       .  A
C485        H488   1.083       .  S
C486        C487   1.384       .  A
C487        H489   1.083       .  S
N490        N491   1.322       .  A
N490        C494   1.345       .  A
N491        C492   1.344       .  A
C492        C493   1.384       .  A
C492        H495   1.083       .  S
C493        C512   1.481       .  S
C493        C494   1.386       .  A
C494        H496   1.083       .  S
C497        C498   1.405       .  A
C497        C502   1.415       .  A
C498        C499   1.400       .  A
C498        H507   1.084       .  S
C499        C500   1.415       .  A
C499        S503   1.803       .  S
C500        C501   1.405       .  A
C501        C502   1.400       .  A
C501        H508   1.084       .  S
C502        S504   1.803       .  S
S503        H506   1.407       .  S
S504        H505   1.407       .  S
C509        C510   1.404       .  A
C509        C514   1.414       .  A
C510        C511   1.399       .  A
C510        H519   1.084       .  S
C511        C512   1.414       .  A
C511        S515   1.803       .  S
C512        C513   1.404       .  A
C513        C514   1.399       .  A
C513        H520   1.084       .  S
C514        S516   1.803       .  S
S515        H518   1.407       .  S
S516        H517   1.407       .  S
C521        C522   1.404       .  A
C521        C526   1.414       .  A
C522        C523   1.399       .  A
C522        H531   1.084       .  S
C523        C524   1.414       .  A
C523        S527   1.803       .  S
C524        C525   1.404       .  A
C525        C526   1.399       .  A
C525        H532   1.084       .  S
C526        S528   1.803       .  S
S527        H530   1.407       .  S
S528        H529   1.407       .  S
C533        C534   1.403       .  A
C533        C538   1.412       .  A
C534        C535   1.398       .  A
C534        H543   1.084       .  S
C535        C536   1.412       .  A
C535        S539   1.803       .  S
C536        C537   1.403       .  A
C537        C538   1.398       .  A
C537        H544   1.084       .  S
C538        S540   1.803       .  S
S539        H542   1.407       .  S
S540        H541   1.407       .  S
C545        C546   1.404       .  A
C545        C550   1.415       .  A
C546        C547   1.400       .  A
C546        H555   1.084       .  S
C547        C548   1.415       .  A
C547        S551   1.803       .  S
C548        C549   1.404       .  A
C549        C550   1.400       .  A
C549        H556   1.084       .  S
C550        S552   1.803       .  S
S551        H554   1.407       .  S
S552        H553   1.407       .  S
C557        C558   1.404       .  A
C557        C562   1.414       .  A
C558        C559   1.399       .  A
C558        H567   1.084       .  S
C559        C560   1.414       .  A
C559        S563   1.803       .  S
C560        C561   1.404       .  A
C561        C562   1.399       .  A
C561        H568   1.084       .  S
C562        S564   1.803       .  S
S563        H566   1.407       .  S
S564        H565   1.407       .  S
C569        C570   1.404       .  A
C569        C574   1.416       .  A
C570        C571   1.401       .  A
C570        H579   1.084       .  S
C571        C572   1.416       .  A
C571        S575   1.803       .  S
C572        C573   1.404       .  A
C573        C574   1.401       .  A
C573        H580   1.084       .  S
C574        S576   1.803       .  S
S575        H578   1.407       .  S
S576        H577   1.407       .  S
C581        C582   1.404       .  A
C581        C586   1.414       .  A
C582        C583   1.399       .  A
C582        H591   1.084       .  S
C583        C584   1.414       .  A
C583        S587   1.803       .  S
C584        C585   1.404       .  A
C585        C586   1.399       .  A
C585        H592   1.084       .  S
C586        S588   1.803       .  S
S587        H590   1.407       .  S
S588        H589   1.407       .  S
O593        C603   1.277       .  A
O594        C604   1.277       .  A
O594       Cu601   2.007       .  S
O595        C605   1.278       .  A
O595       Cu601   2.016       .  S
O596        C606   1.278       .  A
O597        C606   1.277       .  A
O597       Cu602   2.008       .  S
O598        C605   1.277       .  A
O599        C604   1.278       .  A
O600        C603   1.278       .  A
O600       Cu602   2.017       .  S
C603        C620   1.469       .  S
C604        C682   1.467       .  S
C605        C668   1.469       .  S
C606        C634   1.469       .  S
N607        N608   1.323       .  A
N607        C611   1.345       .  A
N607       Cu615   2.074       .  S
N608        C609   1.346       .  A
N608       Cu614   2.083       .  S
C609        C610   1.384       .  A
C609        H612   1.083       .  S
C610        C714   1.469       .  S
C610        C611   1.382       .  A
C611        H613   1.083       .  S
Cu614       N617   2.083       .  S
Cu615       N625   2.074       .  S
Cu616       N618   2.068       .  S
Cu616       N624   2.068       .  S
N617        N618   1.322       .  A
N617        C621   1.346       .  A
N618        C619   1.345       .  A
C619        C620   1.381       .  A
C619        H622   1.083       .  S
C620        C621   1.384       .  A
C621        H623   1.083       .  S
N624        N625   1.322       .  A
N624        C628   1.343       .  A
N625        C626   1.345       .  A
C626        C627   1.385       .  A
C626        H629   1.083       .  S
C627       C1173   1.479       .  S
C627        C628   1.383       .  A
C628        H630   1.083       .  S
N631        N632   1.323       .  A
N631        C635   1.346       .  A
N631       Cu639   2.081       .  S
N632        C633   1.346       .  A
N632       Cu638   2.076       .  S
C633        C634   1.382       .  A
C633        H636   1.083       .  S
C634        C635   1.383       .  A
C635        H637   1.083       .  S
Cu638       N641   2.077       .  S
Cu639       N649   2.081       .  S
Cu640       N642   2.075       .  S
Cu640       N648   2.075       .  S
N641        N642   1.323       .  A
N641        C645   1.346       .  A
N642        C643   1.345       .  A
C643        C644   1.382       .  A
C643        H646   1.083       .  S
C644        C727   1.469       .  S
C644        C645   1.383       .  A
C645        H647   1.083       .  S
N648        N649   1.322       .  A
N648        C652   1.345       .  A
N649        C650   1.346       .  A
C650        C651   1.387       .  A
C650        H653   1.083       .  S
C651       C1161   1.486       .  S
C651        C652   1.386       .  A
C652        H654   1.082       .  S
N655        N656   1.323       .  A
N655        C659   1.344       .  A
N655       Cu663   2.072       .  S
N656        C657   1.346       .  A
N656       Cu662   2.075       .  S
C657        C658   1.383       .  A
C657        H660   1.083       .  S
C658        C716   1.466       .  S
C658        C659   1.381       .  A
C659        H661   1.083       .  S
Cu662       N665   2.075       .  S
Cu663       N673   2.072       .  S
Cu664       N666   2.075       .  S
Cu664       N672   2.075       .  S
N665        N666   1.322       .  A
N665        C669   1.346       .  A
N666        C667   1.346       .  A
C667        C668   1.383       .  A
C667        H670   1.083       .  S
C668        C669   1.383       .  A
C669        H671   1.083       .  S
N672        N673   1.322       .  A
N672        C676   1.344       .  A
N673        C674   1.345       .  A
C674        C675   1.386       .  A
C674        H677   1.083       .  S
C675       C1149   1.482       .  S
C675        C676   1.385       .  A
C676        H678   1.083       .  S
N679        N680   1.323       .  A
N679        C683   1.345       .  A
N679       Cu687   2.073       .  S
N680        C681   1.346       .  A
N680       Cu686   2.078       .  S
C681        C682   1.383       .  A
C681        H684   1.083       .  S
C682        C683   1.381       .  A
C683        H685   1.083       .  S
Cu686       N689   2.078       .  S
Cu687       N697   2.074       .  S
Cu688       N690   2.073       .  S
Cu688       N696   2.073       .  S
N689        N690   1.323       .  A
N689        C693   1.346       .  A
N690        C691   1.344       .  A
C691        C692   1.381       .  A
C691        H694   1.083       .  S
C692        C729   1.467       .  S
C692        C693   1.383       .  A
C693        H695   1.083       .  S
N696        N697   1.321       .  A
N696        C700   1.345       .  A
N697        C698   1.345       .  A
C698        C699   1.386       .  A
C698        H701   1.082       .  S
C699       C1137   1.483       .  S
C699        C700   1.385       .  A
C700        H702   1.083       .  S
O703        C713   1.278   1_565  A
O703       Cu711   2.016       .  S
O704        C714   1.278       .  A
O704       Cu711   2.014       .  S
O705        C715   1.278   1_565  A
O705       Cu711   2.011       .  S
O706        C716   1.277       .  A
O706       Cu711   2.010       .  S
O707        C716   1.277       .  A
O707       Cu712   2.008       .  S
O708        C715   1.277   1_565  A
O708       Cu712   2.010       .  S
O709        C714   1.278       .  A
O709       Cu712   2.012       .  S
O710        C713   1.278   1_565  A
O710       Cu712   2.013       .  S
Cu711      Cu712   2.376       .  S
C713        C796   1.470       .  S
C715        C782   1.467       .  S
O717        C727   1.277       .  A
O717       Cu725   2.011       .  S
O718        C728   1.277       .  A
O718       Cu725   2.010       .  S
O719        C729   1.277       .  A
O719       Cu725   2.008       .  S
O720        C730   1.277       .  A
O720       Cu725   2.007       .  S
O721        C730   1.277       .  A
O721       Cu726   2.009       .  S
O722        C729   1.277       .  A
O722       Cu726   2.011       .  S
O723        C728   1.278       .  A
O723       Cu726   2.012       .  S
O724        C727   1.278       .  A
O724       Cu726   2.014       .  S
Cu725      Cu726   2.377       .  S
C728        C820   1.467   1_565  S
C730        C748   1.465   1_565  S
O731        C741   1.277       .  A
O732        C742   1.277       .  A
O732       Cu739   2.007       .  S
O733        C743   1.278       .  A
O733       Cu739   2.015       .  S
O734        C744   1.279       .  A
O735        C744   1.277       .  A
O736        C743   1.277       .  A
O736       Cu740   2.007       .  S
O737        C742   1.278       .  A
O737       Cu740   2.012       .  S
O738        C741   1.278       .  A
Cu739      Cu740   2.377       .  S
C741        C806   1.468       .  S
C742        C758   1.466       .  S
C743        C772   1.468       .  S
C744        C830   1.470       .  S
N745        N746   1.323       .  A
N745        C749   1.345       .  A
N745       Cu753   2.071       .  S
N746        C747   1.345       .  A
N746       Cu752   2.075       .  S
C747        C748   1.382       .  A
C747        H750   1.083       .  S
C748        C749   1.381       .  A
C749        H751   1.083       .  S
Cu752       N755   2.076       .  S
Cu753       N763   2.071       .  S
Cu754       N756   2.063       .  S
Cu754       N762   2.064       .  S
N755        N756   1.322       .  A
N755        C759   1.345       .  A
N756        C757   1.344       .  A
C757        C758   1.380       .  A
C757        H760   1.083       .  S
C758        C759   1.383       .  A
C759        H761   1.083       .  S
N762        N763   1.322       .  A
N762        C766   1.343       .  A
N763        C764   1.344       .  A
C764        C765   1.383       .  A
C764        H767   1.083       .  S
C765       C1125   1.472       .  S
C765        C766   1.380       .  A
C766        H768   1.083       .  S
N769        N770   1.323       .  A
N769        C773   1.345       .  A
N769       Cu777   2.075       .  S
N770        C771   1.346       .  A
N770       Cu776   2.076       .  S
C771        C772   1.383       .  A
C771        H774   1.083       .  S
C772        C773   1.382       .  A
C773        H775   1.083       .  S
Cu776       N779   2.076       .  S
Cu777       N787   2.075       .  S
Cu778       N780   2.072       .  S
Cu778       N786   2.073       .  S
N779        N780   1.322       .  A
N779        C783   1.345       .  A
N780        C781   1.346       .  A
C781        C782   1.382       .  A
C781        H784   1.083       .  S
C782        C783   1.382       .  A
C783        H785   1.083       .  S
N786        N787   1.322       .  A
N786        C790   1.344       .  A
N787        C788   1.345       .  A
C788        C789   1.385       .  A
C788        H791   1.082       .  S
C789       C1113   1.481       .  S
C789        C790   1.384       .  A
C790        H792   1.083       .  S
N793        N794   1.323       .  A
N793        C797   1.345       .  A
N793       Cu801   2.073       .  S
N794        C795   1.347       .  A
N794       Cu800   2.083       .  S
C795        C796   1.384       .  A
C795        H798   1.083       .  S
C796        C797   1.382       .  A
C797        H799   1.083       .  S
Cu800       N803   2.083       .  S
Cu801       N811   2.073       .  S
Cu802       N804   2.073       .  S
Cu802       N810   2.074       .  S
N803        N804   1.323       .  A
N803        C807   1.346       .  A
N804        C805   1.346       .  A
C805        C806   1.381       .  A
C805        H808   1.083       .  S
C806        C807   1.383       .  A
C807        H809   1.083       .  S
N810        N811   1.322       .  A
N810        C814   1.345       .  A
N811        C812   1.344       .  A
C812        C813   1.384       .  A
C812        H815   1.083       .  S
C813       C1101   1.481       .  S
C813        C814   1.385       .  A
C814        H816   1.082       .  S
N817        N818   1.323       .  A
N817        C821   1.345       .  A
N817       Cu825   2.074       .  S
N818        C819   1.346       .  A
N818       Cu824   2.078       .  S
C819        C820   1.383       .  A
C819        H822   1.083       .  S
C820        C821   1.381       .  A
C821        H823   1.083       .  S
Cu824       N827   2.078       .  S
Cu825       N835   2.074       .  S
Cu826       N828   2.078       .  S
Cu826       N834   2.078       .  S
N827        N828   1.323       .  A
N827        C831   1.346       .  A
N828        C829   1.346       .  A
C829        C830   1.383       .  A
C829        H832   1.083       .  S
C830        C831   1.383       .  A
C831        H833   1.083       .  S
N834        N835   1.322       .  A
N834        C838   1.345       .  A
N835        C836   1.345       .  A
C836        C837   1.386       .  A
C836        H839   1.082       .  S
C837       C1092   1.485       .  S
C837        C838   1.386       .  A
C838        H840   1.083       .  S
O841        C851   1.278       .  A
O841       Cu849   2.016       .  S
O842        C852   1.278       .  A
O842       Cu849   2.015   1_455  S
O843        C853   1.277       .  A
O843       Cu849   2.010       .  S
O844        C854   1.277       .  A
O844       Cu849   2.009   1_455  S
O845        C854   1.278       .  A
O845       Cu850   2.015   1_455  S
O846        C853   1.278       .  A
O846       Cu850   2.016       .  S
O847        C852   1.277       .  A
O847       Cu850   2.009   1_455  S
O848        C851   1.277       .  A
O848       Cu850   2.010       .  S
Cu849      Cu850   2.376       .  S
C851       C1044   1.469       .  S
C852        C886   1.469       .  S
C853       C1020   1.469       .  S
C854        C958   1.468       .  S
O855        C865   1.278       .  A
O855       Cu863   2.016       .  S
O856        C866   1.278       .  A
O856       Cu863   2.014   1_655  S
O857        C867   1.277       .  A
O857       Cu863   2.009       .  S
O858        C868   1.277       .  A
O858       Cu863   2.010   1_655  S
O859        C868   1.278       .  A
O859       Cu864   2.013   1_655  S
O860        C867   1.278       .  A
O860       Cu864   2.011       .  S
O861        C866   1.277       .  A
O861       Cu864   2.008   1_655  S
O862        C865   1.277       .  A
O862       Cu864   2.010       .  S
Cu863      Cu864   2.377       .  S
C865        C934   1.469       .  S
C866       C1006   1.468       .  S
C867        C910   1.466       .  S
C868       C1078   1.469       .  S
O869        C879   1.278       .  A
O870        C880   1.278       .  A
O870       Cu877   2.014       .  S
O871        C881   1.277       .  A
O871       Cu877   2.010       .  S
O872        C882   1.277       .  A
O873        C882   1.277       .  A
O874        C881   1.277       .  A
O874       Cu878   2.010       .  S
O875        C880   1.277       .  A
O875       Cu878   2.008       .  S
O876        C879   1.277       .  A
Cu877      Cu878   2.377       .  S
C879        C896   1.469       .  S
C880        C944   1.468       .  S
C881        C968   1.467       .  S
C882        C920   1.465       .  S
N883        N884   1.323       .  A
N883        C887   1.346       .  A
N883       Cu891   2.081       .  S
N884        C885   1.346       .  A
N884       Cu890   2.076       .  S
C885        C886   1.382       .  A
C885        H888   1.083       .  S
C886        C887   1.383       .  A
C887        H889   1.083       .  S
Cu890       N893   2.077       .  S
Cu891       N901   2.081       .  S
Cu892       N894   2.075       .  S
Cu892       N900   2.075       .  S
N893        N894   1.323       .  A
N893        C897   1.346       .  A
N894        C895   1.345       .  A
C895        C896   1.382       .  A
C895        H898   1.083       .  S
C896        C897   1.383       .  A
C897        H899   1.083       .  S
N900        N901   1.322       .  A
N900        C904   1.345       .  A
N901        C902   1.346       .  A
C902        C903   1.387       .  A
C902        H905   1.083       .  S
C903       C1164   1.486       .  S
C903        C904   1.386       .  A
C904        H906   1.082       .  S
N907        N908   1.322       .  A
N907        C911   1.344       .  A
N907       Cu915   2.064       .  S
N908        C909   1.345       .  A
N908       Cu914   2.075       .  S
C909        C910   1.383       .  A
C909        H912   1.083       .  S
C910        C911   1.381       .  A
C911        H913   1.083       .  S
Cu914       N917   2.075       .  S
Cu915       N925   2.064       .  S
Cu916       N918   2.071       .  S
Cu916       N924   2.072       .  S
N917        N918   1.323       .  A
N917        C921   1.344       .  A
N918        C919   1.345       .  A
C919        C920   1.381       .  A
C919        H922   1.083       .  S
C920        C921   1.381       .  A
C921        H923   1.083       .  S
N924        N925   1.322       .  A
N924        C928   1.344       .  A
N925        C926   1.343       .  A
C926        C927   1.380       .  A
C926        H929   1.083       .  S
C927       C1128   1.472       .  S
C927        C928   1.383       .  A
C928        H930   1.083       .  S
N931        N932   1.323       .  A
N931        C935   1.346       .  A
N931       Cu939   2.078       .  S
N932        C933   1.346       .  A
N932       Cu938   2.077       .  S
C933        C934   1.383       .  A
C933        H936   1.083       .  S
C934        C935   1.383       .  A
C935        H937   1.083       .  S
Cu938       N941   2.077       .  S
Cu939       N949   2.078       .  S
Cu940       N942   2.075       .  S
Cu940       N948   2.075       .  S
N941        N942   1.323       .  A
N941        C945   1.346       .  A
N942        C943   1.345       .  A
C943        C944   1.382       .  A
C943        H946   1.083       .  S
C944        C945   1.383       .  A
C945        H947   1.083       .  S
N948        N949   1.322       .  A
N948        C952   1.345       .  A
N949        C950   1.345       .  A
C950        C951   1.386       .  A
C950        H953   1.083       .  S
C951       C1089   1.485       .  S
C951        C952   1.387       .  A
C952        H954   1.082       .  S
N955        N956   1.323       .  A
N955        C959   1.345       .  A
N955       Cu963   2.074       .  S
N956        C957   1.346       .  A
N956       Cu962   2.079       .  S
C957        C958   1.383       .  A
C957        H960   1.083       .  S
C958        C959   1.381       .  A
C959        H961   1.083       .  S
Cu962       N965   2.079       .  S
Cu963       N973   2.074       .  S
Cu964       N966   2.073       .  S
Cu964       N972   2.073       .  S
N965        N966   1.323       .  A
N965        C969   1.346       .  A
N966        C967   1.345       .  A
C967        C968   1.381       .  A
C967        H970   1.083       .  S
C968        C969   1.383       .  A
C969        H971   1.083       .  S
N972        N973   1.321       .  A
N972        C976   1.345       .  A
N973        C974   1.345       .  A
C974        C975   1.386       .  A
C974        H977   1.082       .  S
C975       C1140   1.483       .  S
C975        C976   1.385       .  A
C976        H978   1.083       .  S
O979        C989   1.278       .  A
O979       Cu987   2.012   1_556  S
O980        C990   1.277       .  A
O981        C991   1.278       .  A
O982        C992   1.278       .  A
O982       Cu987   2.012   1_556  S
O983        C992   1.278       .  A
O983       Cu988   2.012   1_556  S
O984        C991   1.278       .  A
O985        C990   1.277       .  A
O986        C989   1.277       .  A
O986       Cu988   2.010   1_556  S
Cu987      Cu988   2.376       .  S
C989        C996   1.468       .  S
C990       C1054   1.466       .  S
C991       C1068   1.470       .  S
C992       C1030   1.469       .  S
N993        N994   1.322       .  A
N993        C997   1.345       .  A
N993      Cu1001   2.072       .  S
N994        C995   1.346       .  A
N994      Cu1000   2.078       .  S
C995        C996   1.383       .  A
C995        H998   1.083       .  S
C996        C997   1.382       .  A
C997        H999   1.083       .  S
Cu1000     N1003   2.077       .  S
Cu1001     N1011   2.073       .  S
Cu1002     N1004   2.074       .  S
Cu1002     N1010   2.075       .  S
N1003      N1004   1.323       .  A
N1003      C1007   1.346       .  A
N1004      C1005   1.345       .  A
C1005      C1006   1.382       .  A
C1005      H1008   1.083       .  S
C1006      C1007   1.383       .  A
C1007      H1009   1.083       .  S
N1010      N1011   1.322       .  A
N1010      C1014   1.345       .  A
N1011      C1012   1.344       .  A
C1012      C1013   1.384       .  A
C1012      H1015   1.083       .  S
C1013      C1116   1.481       .  S
C1013      C1014   1.385       .  A
C1014      H1016   1.083       .  S
N1017      N1018   1.322       .  A
N1017      C1021   1.345       .  A
N1017     Cu1025   2.068       .  S
N1018      C1019   1.346       .  A
N1018     Cu1024   2.083       .  S
C1019      C1020   1.385       .  A
C1019      H1022   1.083       .  S
C1020      C1021   1.381       .  A
C1021      H1023   1.083       .  S
Cu1024     N1027   2.083       .  S
Cu1025     N1035   2.069       .  S
Cu1026     N1028   2.073       .  S
Cu1026     N1034   2.074       .  S
N1027      N1028   1.323       .  A
N1027      C1031   1.346       .  A
N1028      C1029   1.345       .  A
C1029      C1030   1.382       .  A
C1029      H1032   1.083       .  S
C1030      C1031   1.383       .  A
C1031      H1033   1.083       .  S
N1034      N1035   1.322       .  A
N1034      C1038   1.345       .  A
N1035      C1036   1.343       .  A
C1036      C1037   1.383       .  A
C1036      H1039   1.084       .  S
C1037      C1176   1.479       .  S
C1037      C1038   1.385       .  A
C1038      H1040   1.083       .  S
N1041      N1042   1.322       .  A
N1041      C1045   1.346       .  A
N1041     Cu1049   2.075       .  S
N1042      C1043   1.345       .  A
N1042     Cu1048   2.074       .  S
C1043      C1044   1.382       .  A
C1043      H1046   1.083       .  S
C1044      C1045   1.383       .  A
C1045      H1047   1.083       .  S
Cu1048     N1051   2.074       .  S
Cu1049     N1059   2.075       .  S
Cu1050     N1052   2.072       .  S
Cu1050     N1058   2.073       .  S
N1051      N1052   1.322       .  A
N1051      C1055   1.345       .  A
N1052      C1053   1.345       .  A
C1053      C1054   1.381       .  A
C1053      H1056   1.083       .  S
C1054      C1055   1.382       .  A
C1055      H1057   1.083       .  S
N1058      N1059   1.322       .  A
N1058      C1062   1.345       .  A
N1059      C1060   1.344       .  A
C1060      C1061   1.385       .  A
C1060      H1063   1.083       .  S
C1061      C1152   1.482       .  S
C1061      C1062   1.386       .  A
C1062      H1064   1.082       .  S
N1065      N1066   1.323       .  A
N1065      C1069   1.345       .  A
N1065     Cu1073   2.073       .  S
N1066      C1067   1.347       .  A
N1066     Cu1072   2.084       .  S
C1067      C1068   1.384       .  A
C1067      H1070   1.083       .  S
C1068      C1069   1.382       .  A
C1069      H1071   1.083       .  S
Cu1072     N1075   2.083       .  S
Cu1073     N1083   2.073       .  S
Cu1074     N1076   2.074       .  S
Cu1074     N1082   2.074       .  S
N1075      N1076   1.323       .  A
N1075      C1079   1.346       .  A
N1076      C1077   1.345       .  A
C1077      C1078   1.382       .  A
C1077      H1080   1.083       .  S
C1078      C1079   1.384       .  A
C1079      H1081   1.083       .  S
N1082      N1083   1.322       .  A
N1082      C1086   1.345       .  A
N1083      C1084   1.344       .  A
C1084      C1085   1.384       .  A
C1084      H1087   1.083       .  S
C1085      C1104   1.481       .  S
C1085      C1086   1.386       .  A
C1086      H1088   1.083       .  S
C1089      C1090   1.405       .  A
C1089      C1094   1.415       .  A
C1090      C1091   1.400       .  A
C1090      H1099   1.084       .  S
C1091      C1092   1.415       .  A
C1091      S1095   1.803       .  S
C1092      C1093   1.405       .  A
C1093      C1094   1.400       .  A
C1093      H1100   1.084       .  S
C1094      S1096   1.803       .  S
S1095      H1098   1.407       .  S
S1096      H1097   1.407       .  S
C1101      C1102   1.404       .  A
C1101      C1106   1.414       .  A
C1102      C1103   1.399       .  A
C1102      H1111   1.084       .  S
C1103      C1104   1.414       .  A
C1103      S1107   1.803       .  S
C1104      C1105   1.404       .  A
C1105      C1106   1.399       .  A
C1105      H1112   1.084       .  S
C1106      S1108   1.803       .  S
S1107      H1110   1.407       .  S
S1108      H1109   1.407       .  S
C1113      C1114   1.404       .  A
C1113      C1118   1.414       .  A
C1114      C1115   1.399       .  A
C1114      H1123   1.084       .  S
C1115      C1116   1.414       .  A
C1115      S1119   1.803       .  S
C1116      C1117   1.404       .  A
C1117      C1118   1.399       .  A
C1117      H1124   1.084       .  S
C1118      S1120   1.803       .  S
S1119      H1122   1.407       .  S
S1120      H1121   1.407       .  S
C1125      C1126   1.403       .  A
C1125      C1130   1.412       .  A
C1126      C1127   1.398       .  A
C1126      H1135   1.084       .  S
C1127      C1128   1.412       .  A
C1127      S1131   1.803       .  S
C1128      C1129   1.403       .  A
C1129      C1130   1.398       .  A
C1129      H1136   1.084       .  S
C1130      S1132   1.803       .  S
S1131      H1134   1.407       .  S
S1132      H1133   1.407       .  S
C1137      C1138   1.404       .  A
C1137      C1142   1.415       .  A
C1138      C1139   1.400       .  A
C1138      H1147   1.084       .  S
C1139      C1140   1.415       .  A
C1139      S1143   1.803       .  S
C1140      C1141   1.404       .  A
C1141      C1142   1.400       .  A
C1141      H1148   1.084       .  S
C1142      S1144   1.803       .  S
S1143      H1146   1.407       .  S
S1144      H1145   1.407       .  S
C1149      C1150   1.404       .  A
C1149      C1154   1.414       .  A
C1150      C1151   1.399       .  A
C1150      H1159   1.084       .  S
C1151      C1152   1.414       .  A
C1151      S1155   1.803       .  S
C1152      C1153   1.404       .  A
C1153      C1154   1.399       .  A
C1153      H1160   1.084       .  S
C1154      S1156   1.803       .  S
S1155      H1158   1.407       .  S
S1156      H1157   1.407       .  S
C1161      C1162   1.404       .  A
C1161      C1166   1.416       .  A
C1162      C1163   1.401       .  A
C1162      H1171   1.084       .  S
C1163      C1164   1.416       .  A
C1163      S1167   1.803       .  S
C1164      C1165   1.404       .  A
C1165      C1166   1.401       .  A
C1165      H1172   1.084       .  S
C1166      S1168   1.803       .  S
S1167      H1170   1.407       .  S
S1168      H1169   1.407       .  S
C1173      C1174   1.404       .  A
C1173      C1178   1.414       .  A
C1174      C1175   1.399       .  A
C1174      H1183   1.084       .  S
C1175      C1176   1.414       .  A
C1175      S1179   1.803       .  S
C1176      C1177   1.404       .  A
C1177      C1178   1.399       .  A
C1177      H1184   1.084       .  S
C1178      S1180   1.803       .  S
S1179      H1182   1.407       .  S
S1180      H1181   1.407       .  S
