geometry optimzed in LAMMPS
_audit_creation_date              2020-11-30 
_audit_creation_method            'lammps2cif' 
_symmetry_space_group_name_H-M    'P1' 
_symmetry_Int_Tables_number       1 
_symmetry_cell_setting            triclinic 
loop_ 
_symmetry_equiv_pos_as_xyz 
  x,y,z 
_cell_length_a                    36.58916368 
_cell_length_b                    37.0622894796313 
_cell_length_c                    21.566493049069823 
_cell_angle_alpha                 90.47332667426342 
_cell_angle_beta                  89.91783535602492 
_cell_angle_gamma                 87.0539155734845 
loop_ 
_atom_site_label 
_atom_site_type_symbol 
_atom_site_fract_x 
_atom_site_fract_y 
_atom_site_fract_z 
_atom_site_charge 
O1          O  0.45525606  0.44592800  0.44344304    -0.79800
O2          O  0.07353044  0.04884936  0.05939057    -0.79800
O3          O  0.05846762  0.50224642  0.39871293    -0.79800
O4          O  0.99247703  0.44697845  0.12796250    -0.79700
O5          O  0.07915750  0.99037085  0.44330376    -0.79900
O6          O  0.51388965  0.42843252  0.04103417    -0.79800
O7          O  0.04123352  0.50234063  0.13596814    -0.79800
O8          O  0.01345978  0.44990387  0.40898337    -0.79800
C9          C  0.98869149  0.42800284  0.41522541     1.09900
C10         C  0.07301285  0.49804198  0.11146217     1.09800
C11         C  0.07466515  0.99592756  0.38728653     1.09900
C12         C  0.50817928  0.42550307  0.09869877     1.09800
O13         O  0.43662988  0.44812495  0.06633535    -0.79800
O14         O  0.04962011  0.06174923  0.44488872    -0.79800
O15         O  0.43858592  0.01514464  0.42896755    -0.79800
O16         O  0.51484097  0.05346724  0.13204623    -0.79800
O17         O  0.00642117  0.08569535  0.06034605    -0.79800
O18         O  0.41795413  0.51376093  0.44554209    -0.79800
O19         O  0.46135914  0.00188560  0.12996123    -0.79700
O20         O  0.48986289  0.06609722  0.42975212    -0.79800
Co21       Co  0.45208879  0.49024779  0.50000893     1.51500
Co22       Co  0.02994808  0.05187986  0.00281930     1.51700
Co23       Co  0.99066263  0.00863891  0.40544876     1.51600
Co24       Co  0.48815330  0.50641021  0.10634332     1.52300
O25         O  0.49817263  0.51521029  0.50114936    -1.41700
C26         C  0.41951921  0.47554280  0.09056598     1.09800
C27         C  0.01989373  0.07797455  0.42786451     1.09900
C28         C  0.41975368  0.98775641  0.42307949     1.09900
C29         C  0.50825013  0.08619511  0.11448271     1.09900
C30         C  0.00862879  0.28564277  0.30049455     0.02700
C31         C  0.01329502  0.28317636  0.23524218     0.02600
C32         C  0.01497678  0.24848818  0.20713119    -0.17900
C33         C  0.01429527  0.21660445  0.24283740     0.02700
C34         C  0.01226481  0.21925811  0.30834083     0.02600
C35         C  0.00926090  0.25381594  0.33627913    -0.17900
H36         H  0.00643268  0.25597980  0.38622026     0.04700
H37         H  0.01698946  0.24624483  0.15709912     0.04700
C38         C  0.28880960  0.99799995  0.22708385     0.02700
C39         C  0.28281174  0.99833122  0.29205400     0.02600
C40         C  0.24694358  0.00130986  0.31470415    -0.17900
C41         C  0.21685829  0.00256593  0.27431197     0.02700
C42         C  0.22276274  0.00111698  0.20949502     0.02600
C43         C  0.25863632  0.99941356  0.18662796    -0.17900
H44         H  0.26314811  0.99919598  0.13691752     0.04700
H45         H  0.24226484  0.00314938  0.36427433     0.04700
C46         C  0.11313290  0.47087716  0.19421848    -0.11900
C47         C  0.12351964  0.01297825  0.10490746     0.05100
C48         C  0.15068441  0.03841205  0.09913592    -0.07200
C49         C  0.18438632  0.03252790  0.12933492    -0.07900
C50         C  0.19152445  0.00164478  0.16557877    -0.02500
C51         C  0.14847943  0.46318691  0.21837794     0.04300
N52         N  0.15397073  0.43502344  0.26328534     0.66800
H53         H  0.09044262  0.45550774  0.20953967     0.15700
H54         H  0.20419741  0.05325716  0.12769005     0.15500
N55         N  0.14420770  0.07071954  0.06431200     0.74500
O56         O  0.14741402  0.92303037  0.21898859    -0.38900
O57         O  0.18352586  0.41588993  0.26439029    -0.38800
O58         O  0.13305998  0.09953781  0.09138623    -0.39600
O59         O  0.15637772  0.54015867  0.03086264    -0.39600
C60         C  0.11559027  0.02319477  0.31077018    -0.11900
C61         C  0.10855685  0.99411866  0.34964591     0.05100
C62         C  0.14562859  0.48951732  0.41166042    -0.07200
C63         C  0.17872818  0.48446044  0.37905150    -0.07900
C64         C  0.17958974  0.00198906  0.30134512    -0.02500
C65         C  0.15127349  0.02842955  0.28892049     0.04300
N66         N  0.15867937  0.06149105  0.25795082     0.66800
H67         H  0.09409044  0.04382418  0.30266181     0.15700
H68         H  0.19794808  0.46257653  0.39189873     0.15500
N69         N  0.13871680  0.46658429  0.46352542     0.74500
O70         O  0.13367715  0.07840317  0.22820792    -0.38900
O71         O  0.20281247  0.56658554  0.25138050    -0.38800
O72         O  0.14234347  0.90881986  0.39253864    -0.39600
O73         O  0.16504020  0.45358425  0.49548669    -0.39600
C74         C  0.32022886  0.49856454  0.13377793    -0.11900
C75         C  0.32601618  0.00070801  0.20023492     0.05100
C76         C  0.35543459  0.97518942  0.21120314    -0.07200
C77         C  0.39062100  0.98198008  0.18875508    -0.07900
C78         C  0.38212621  0.47332167  0.11605584    -0.02500
C79         C  0.35435065  0.50056029  0.10506459     0.04300
N80         N  0.36038643  0.53117258  0.06688795     0.66800
H81         H  0.29968875  0.52033092  0.12716865     0.15700
H82         H  0.41282797  0.96186811  0.19525196     0.15500
N83         N  0.34967336  0.94147801  0.24118513     0.74500
O84         O  0.33743385  0.53966514  0.02519020    -0.38900
O85         O  0.36296039  0.09729081  0.11447466    -0.38800
O86         O  0.30258675  0.40244832  0.23368038    -0.39600
O87         O  0.37514644  0.92593763  0.27187830    -0.39600
C88         C  0.33762740  0.02643145  0.33343387    -0.11900
C89         C  0.31389128  0.99810022  0.33623822     0.05100
C90         C  0.32325271  0.96784316  0.37360195    -0.07200
C91         C  0.35769235  0.96509481  0.40239537    -0.07900
C92         C  0.38265400  0.99232461  0.39571585    -0.02500
C93         C  0.37188441  0.02369858  0.36168617     0.04300
N94         N  0.39615450  0.05215750  0.35182883     0.66800
H95         H  0.33049821  0.04988684  0.30537472     0.15700
H96         H  0.36510803  0.94132073  0.42941613     0.15500
N97         N  0.29917762  0.93878965  0.37976994     0.74500
O98         O  0.42685064  0.55152141  0.25852319    -0.38900
O99         O  0.39267628  0.08073260  0.38397753    -0.38800
O100        O  0.32695567  0.40993195  0.37924192    -0.39600
O101        O  0.26911204  0.94413727  0.40791541    -0.39600
C102        C  0.04105498  0.12014027  0.18763338    -0.11900
C103        C  0.00819239  0.10987081  0.16036459     0.05100
C104        C  0.47720096  0.14330438  0.15826621    -0.07200
C105        C  0.48057206  0.17744359  0.18587092    -0.07900
C106        C  0.01397373  0.18051152  0.21134555    -0.02500
C107        C  0.04439164  0.15529357  0.21256120     0.04300
N108        N  0.07907571  0.16550486  0.23633590     0.66800
H109        H  0.06495983  0.10168146  0.18537131     0.15700
H110        H  0.45719355  0.19663216  0.18626663     0.15500
N111        N  0.44261928  0.13491835  0.13234271     0.74500
O112        O  0.09945746  0.14295101  0.26528176    -0.38900
O113        O  0.09030557  0.19654555  0.22604311    -0.38800
O114        O  0.41395919  0.14081160  0.16422061    -0.39600
O115        O  0.43979353  0.12862764  0.07500315    -0.39600
C116        C  0.04435527  0.17341704  0.37716730    -0.11900
C117        C  0.01196145  0.18588679  0.34747641     0.05100
C118        C  0.48067495  0.17026701  0.34992710    -0.07200
C119        C  0.48380897  0.13576246  0.37741853    -0.07900
C120        C  0.01775699  0.11616705  0.40386059    -0.02500
C121        C  0.04749272  0.13908391  0.40511608     0.04300
N122        N  0.08124605  0.12789107  0.43396317     0.66800
H123        H  0.06796224  0.18988615  0.37641571     0.15700
H124        H  0.46037341  0.11909730  0.37622806     0.15500
N125        N  0.44627421  0.18251451  0.32283292     0.74500
O126        O  0.10603331  0.11133345  0.40255681    -0.38900
O127        O  0.08835757  0.13933520  0.48763770    -0.38800
O128        O  0.43681809  0.21574144  0.32160637    -0.39600
O129        O  0.42373833  0.15997607  0.30484425    -0.39600
C130        C  0.48846839  0.33032319  0.15467834    -0.11900
C131        C  0.01471635  0.31659708  0.19585939     0.05100
C132        C  0.04425740  0.34016687  0.19752152    -0.07200
C133        C  0.04108734  0.37377609  0.16602107    -0.07900
C134        C  0.51231906  0.38922074  0.12964513    -0.02500
C135        C  0.48678975  0.36223083  0.11968373     0.04300
N136        N  0.45865834  0.36636833  0.07418111     0.66800
H137        H  0.46755529  0.31098870  0.14793775     0.15700
H138        H  0.06304374  0.39223380  0.16894711     0.15500
N139        N  0.07798700  0.32990336  0.22861324     0.74500
O140        O  0.46226213  0.34832467  0.02448087    -0.38900
O141        O  0.42684404  0.37649932  0.09167392    -0.38800
O142        O  0.08840709  0.29701965  0.23312110    -0.39600
O143        O  0.09963341  0.35365426  0.24496709    -0.39600
C144        C  0.03252715  0.33826366  0.35696748    -0.11900
C145        C  0.00253153  0.32132023  0.33217186     0.05100
C146        C  0.46758263  0.34568959  0.33564030    -0.07200
C147        C  0.46218914  0.37925422  0.36652140    -0.07900
C148        C  0.99344650  0.39065470  0.38895755    -0.02500
C149        C  0.02845878  0.37252869  0.38508011     0.04300
N150        N  0.06010109  0.38794938  0.41121244     0.66800
H151        H  0.05939120  0.32457908  0.35481249     0.15700
H152        H  0.43543970  0.39320823  0.36501349     0.15500
N153        N  0.43760747  0.33066201  0.30365942     0.74500
O154        O  0.06027840  0.39685672  0.46776408    -0.38900
O155        O  0.08965988  0.38711625  0.38097094    -0.38800
O156        O  0.42689799  0.30006756  0.31845321    -0.39600
O157        O  0.42157928  0.34809844  0.26073976    -0.39600
O158        O  0.46225685  0.41005049  0.95849233    -0.79800
O159        O  0.08236683  0.99040926  0.54618637    -0.79800
O160        O  0.03951777  0.49338267  0.87802151    -0.79800
O161        O  0.00143835  0.44003845  0.57837191    -0.79700
O162        O  0.07439533  0.04751369  0.94789543    -0.79900
O163        O  0.44858163  0.44741178  0.55612368    -0.79800
O164        O  0.05846684  0.48692821  0.57910054    -0.79800
O165        O  0.98210190  0.44413342  0.88883857    -0.79800
C166        C  0.97351532  0.41123106  0.90369776     1.09900
C167        C  0.08079629  0.51170943  0.58474993     1.09800
C168        C  0.08694250  0.01738110  0.92629891     1.09900
C169        C  0.47793125  0.43144742  0.57471399     1.09800
O170        O  0.41785917  0.51541617  0.55460043    -0.79800
O171        O  0.01103619  0.08783086  0.94654581    -0.79800
O172        O  0.46049981  0.00484160  0.86902092    -0.79800
O173        O  0.49010241  0.06035326  0.58231760    -0.79800
O174        O  0.04950208  0.05762210  0.55848515    -0.79800
O175        O  0.42387935  0.46949325  0.95965881    -0.79800
O176        O  0.43801048  0.01043474  0.57830997    -0.79700
O177        O  0.51574370  0.05497636  0.86843201    -0.79800
Co178      Co  0.47276319  0.45307226  0.99606310     1.51500
Co179      Co  0.04741668  0.01685556  0.49774401     1.51700
Co180      Co  0.01448541  0.99593339  0.90513120     1.51600
Co181      Co  0.50814427  0.50085245  0.59476461     1.52300
O182        O  0.49231685  0.50093211  0.00961211    -1.41700
C183        C  0.42340933  0.51261101  0.61151274     1.09800
C184        C  0.01334837  0.08086163  0.88986413     1.09900
C185        C  0.42902599  0.01548982  0.89011983     1.09900
C186        C  0.51802311  0.07912165  0.58139013     1.09900
C187        C  0.99651345  0.28090453  0.75384842     0.02700
C188        C  0.99879574  0.28027634  0.68826860     0.02600
C189        C  0.00597652  0.24744111  0.65669592    -0.17900
C190        C  0.01011750  0.21493037  0.68917190     0.02700
C191        C  0.00693884  0.21507701  0.75432462     0.02600
C192        C  0.00107945  0.24810679  0.78624265    -0.17900
H193        H  0.99909901  0.24814209  0.83638987     0.04700
H194        H  0.00715929  0.24702743  0.60645604     0.04700
C195        C  0.28529817  0.98735486  0.71589417     0.02700
C196        C  0.28760173  0.99888346  0.77840474     0.02600
C197        C  0.25542522  0.00363238  0.81365903    -0.17900
C198        C  0.22119576  0.99711483  0.78804177     0.02700
C199        C  0.21886960  0.98466890  0.72611639     0.02600
C200        C  0.25110824  0.98018607  0.69065919    -0.17900
H201        H  0.24948059  0.97175243  0.64251644     0.04700
H202        H  0.25686393  0.01352071  0.86097784     0.04700
C203        C  0.12556123  0.47191907  0.64383835    -0.11900
C204        C  0.11286398  0.99014739  0.63930067     0.05100
C205        C  0.14251827  0.00957582  0.61687361    -0.07200
C206        C  0.17657997  0.00584836  0.64490534    -0.07900
C207        C  0.18294624  0.98242424  0.69438940    -0.02500
C208        C  0.15923042  0.46519277  0.67438280     0.04300
N209        N  0.16541134  0.43219886  0.70856261     0.66800
H210        H  0.10456108  0.45250664  0.64784167     0.15700
H211        H  0.19818966  0.02241854  0.62872665     0.15500
N212        N  0.13864070  0.03354218  0.56526714     0.74500
O213        O  0.13487484  0.91890315  0.78722894    -0.38900
O214        O  0.19738460  0.41826338  0.71499769    -0.38800
O215        O  0.12308163  0.06437444  0.57306727    -0.39600
O216        O  0.15575798  0.56154735  0.51396637    -0.39600
C217        C  0.13088734  0.03831527  0.84949701    -0.11900
C218        C  0.12319189  0.01393027  0.89642757     0.05100
C219        C  0.13473077  0.45991984  0.88183268    -0.07200
C220        C  0.16893502  0.46322189  0.85376845    -0.07900
C221        C  0.18816459  0.00486087  0.82642244    -0.02500
C222        C  0.16307454  0.03425843  0.81410627     0.04300
N223        N  0.16926457  0.05955088  0.76533605     0.66800
H224        H  0.11092535  0.05972612  0.83867746     0.15700
H225        H  0.19147035  0.44472265  0.86681626     0.15500
N226        N  0.13151739  0.43448957  0.93083516     0.74500
O227        O  0.14250806  0.07448300  0.73680209    -0.38900
O228        O  0.17976964  0.56399294  0.76822949    -0.38800
O229        O  0.13327427  0.92630434  0.93368947    -0.39600
O230        O  0.14702784  0.43982712  0.98209891    -0.39600
C231        C  0.32518542  0.53056634  0.66430605    -0.11900
C232        C  0.31820231  0.98344610  0.67565018     0.05100
C233        C  0.34619202  0.95657087  0.68634676    -0.07200
C234        C  0.37847520  0.95640559  0.65127930    -0.07900
C235        C  0.39042838  0.51415346  0.65221752    -0.02500
C236        C  0.35919727  0.53656687  0.63694485     0.04300
N237        N  0.36113993  0.56444314  0.59138277     0.66800
H238        H  0.30178418  0.54840644  0.65299538     0.15700
H239        H  0.40030048  0.93640099  0.66083511     0.15500
N240        N  0.34293144  0.93023755  0.73410134     0.74500
O241        O  0.33717976  0.56754938  0.54941515    -0.38900
O242        O  0.37020546  0.06877240  0.57449512    -0.38800
O243        O  0.32061000  0.42679067  0.74215572    -0.39600
O244        O  0.37023393  0.92134126  0.76733284    -0.39600
C245        C  0.34702584  0.02994028  0.78271602    -0.11900
C246        C  0.32345142  0.00501274  0.80799250     0.05100
C247        C  0.33515090  0.98453866  0.85951874    -0.07200
C248        C  0.37056210  0.98737036  0.88186834    -0.07900
C249        C  0.39481614  0.01119015  0.85545059    -0.02500
C250        C  0.38271917  0.03332819  0.80590281     0.04300
N251        N  0.40526270  0.06012053  0.78045801     0.66800
H252        H  0.33763356  0.04661847  0.74434093     0.15700
H253        H  0.37898093  0.97124503  0.92160828     0.15500
N254        N  0.31139006  0.96077224  0.88990056     0.74500
O255        O  0.38563533  0.57978626  0.82089753    -0.38900
O256        O  0.39070827  0.08907875  0.75937376    -0.38800
O257        O  0.30953925  0.41065449  0.87145866    -0.39600
O258        O  0.29527320  0.97107136  0.93921817    -0.39600
C259        C  0.04998104  0.12621257  0.62237149    -0.11900
C260        C  0.01799022  0.11002943  0.60274884     0.05100
C261        C  0.48067248  0.13689133  0.60601548    -0.07200
C262        C  0.47830960  0.17199978  0.63020844    -0.07900
C263        C  0.01448294  0.18046044  0.65431528    -0.02500
C264        C  0.04870587  0.16129979  0.64800425     0.04300
N265        N  0.08203637  0.17666750  0.66832801     0.66800
H266        H  0.07606187  0.11126269  0.61883668     0.15700
H267        H  0.45169339  0.18605695  0.63443611     0.15500
N268        N  0.44769086  0.12107216  0.58685417     0.74500
O269        O  0.10828810  0.15651258  0.68806518    -0.38900
O270        O  0.08648583  0.21001479  0.66233841    -0.38800
O271        O  0.42343524  0.11488502  0.62645581    -0.39600
O272        O  0.44138730  0.11625822  0.52995089    -0.39600
C273        C  0.04157709  0.16695633  0.81239191    -0.11900
C274        C  0.00814047  0.18053894  0.78893827     0.05100
C275        C  0.47192386  0.16653351  0.79224847    -0.07200
C276        C  0.47611808  0.13237331  0.82069505    -0.07900
C277        C  0.01337498  0.11241820  0.84801363    -0.02500
C278        C  0.04440399  0.13382296  0.84353750     0.04300
N279        N  0.07840488  0.12374040  0.87331192     0.66800
H280        H  0.06543748  0.18293989  0.80827336     0.15700
H281        H  0.45223363  0.11684633  0.82780508     0.15500
N282        N  0.43630794  0.17956181  0.77215789     0.74500
O283        O  0.10811431  0.12867420  0.84551677    -0.38900
O284        O  0.07905697  0.11941479  0.93126192    -0.38800
O285        O  0.42471808  0.21137720  0.78517668    -0.39600
O286        O  0.41502310  0.15840016  0.74629154    -0.39600
C287        C  0.45394641  0.34050192  0.64484575    -0.11900
C288        C  0.99110707  0.31351534  0.65215894     0.05100
C289        C  0.01863550  0.32946597  0.61802075    -0.07200
C290        C  0.01177521  0.36375205  0.59271296    -0.07900
C291        C  0.47978911  0.39320143  0.59716599    -0.02500
C292        C  0.44894660  0.37500424  0.61815318     0.04300
N293        N  0.41267255  0.39145077  0.61564593     0.66800
H294        H  0.43046713  0.32738994  0.66311118     0.15700
H295        H  0.03390199  0.37650117  0.56966613     0.15500
N296        N  0.05419901  0.31200646  0.61147340     0.74500
O297        O  0.39830342  0.39860409  0.56373317    -0.38900
O298        O  0.39242741  0.39107448  0.66304739    -0.38800
O299        O  0.06435547  0.29916923  0.55951149    -0.39600
O300        O  0.07678165  0.31277858  0.65556222    -0.39600
C301        C  0.01165742  0.34455275  0.78089537    -0.11900
C302        C  0.98884395  0.31551792  0.78893177     0.05100
C303        C  0.45326486  0.32886318  0.82613967    -0.07200
C304        C  0.44957532  0.36052092  0.86222334    -0.07900
C305        C  0.97766363  0.38038555  0.85913271    -0.02500
C306        C  0.00620496  0.37690817  0.81493743     0.04300
N307        N  0.03170089  0.40454101  0.80755820     0.66800
H308        H  0.03475633  0.34160933  0.74954400     0.15700
H309        H  0.42657294  0.36401164  0.89382090     0.15500
N310        N  0.42584449  0.30265790  0.83034048     0.74500
O311        O  0.05196807  0.41246380  0.85234643    -0.38900
O312        O  0.03874483  0.41597010  0.75410144    -0.38800
O313        O  0.41253915  0.29503408  0.88237498    -0.39600
O314        O  0.41205776  0.29003897  0.78165781    -0.39600
O315        O  0.50216824  0.92178245  0.43534866    -0.79800
O316        O  0.07664467  0.49744661  0.05430074    -0.79800
O317        O  0.04319556  0.00764308  0.36766815    -0.79800
O318        O  0.01385195  0.94245348  0.07093691    -0.79700
O319        O  0.07676710  0.54571604  0.45914644    -0.79900
O320        O  0.45616678  0.94753150  0.05165898    -0.79800
O321        O  0.06654738  0.99131699  0.07435789    -0.79800
O322        O  0.98763667  0.95850017  0.36180926    -0.79800
C323        C  0.99470584  0.92530245  0.37603744     1.09900
C324        C  0.08632119  0.01825747  0.07777291     1.09800
C325        C  0.08321076  0.52163279  0.41882061     1.09900
C326        C  0.48603179  0.93199490  0.06987012     1.09800
O327        O  0.42304260  0.01541427  0.05484686    -0.79800
O328        O  0.02442505  0.58902168  0.44808569    -0.79800
O329        O  0.45710508  0.50343989  0.36971240    -0.79800
O330        O  0.48264238  0.55966366  0.09709181    -0.79800
O331        O  0.03783093  0.56170039  0.05976774    -0.79800
O332        O  0.43331204  0.95696970  0.43947463    -0.79800
O333        O  0.43494240  0.50509614  0.09439680    -0.79700
O334        O  0.50823646  0.55862221  0.37355823    -0.79800
Co335      Co  0.47747270  0.95316953  0.49510767     1.51500
Co336      Co  0.03948114  0.51843640  0.00346446     1.51700
Co337      Co  0.00417070  0.50308276  0.40053137     1.51600
Co338      Co  0.51368079  0.00202885  0.09262905     1.52300
O339        O  0.50183121  0.99894237  0.50033018    -1.41700
C340        C  0.42906728  0.01125062  0.11107543     1.09800
C341        C  0.00932516  0.58672962  0.39605896     1.09900
C342        C  0.42427385  0.50888471  0.38933322     1.09900
C343        C  0.50885719  0.57982551  0.08633622     1.09900
C344        C  0.99431114  0.78746361  0.25069637     0.02700
C345        C  0.99455764  0.78444516  0.18533958     0.02600
C346        C  0.99629466  0.75008517  0.15717702    -0.17900
C347        C  0.99818584  0.71854258  0.19305730     0.02700
C348        C  0.99671565  0.72129105  0.25850829     0.02600
C349        C  0.99559764  0.75582387  0.28673203    -0.17900
H350        H  0.99531379  0.75810572  0.33690135     0.04700
H351        H  0.99705508  0.74788752  0.10701622     0.04700
C352        C  0.28096278  0.47631343  0.21625182     0.02700
C353        C  0.28461139  0.48855197  0.27801553     0.02600
C354        C  0.25332392  0.49758001  0.31334132    -0.17900
C355        C  0.21836498  0.49448385  0.28849191     0.02700
C356        C  0.21449904  0.48168401  0.22693131     0.02600
C357        C  0.24595927  0.47301353  0.19128177    -0.17900
H358        H  0.24318186  0.46467530  0.14327856     0.04700
H359        H  0.25617399  0.50830578  0.35990614     0.04700
C360        C  0.13186288  0.98097328  0.13796155    -0.11900
C361        C  0.10753109  0.49619433  0.14685967     0.05100
C362        C  0.13787266  0.51437325  0.12367699    -0.07200
C363        C  0.17258218  0.50707747  0.14820236    -0.07900
C364        C  0.17821776  0.48249124  0.19626434    -0.02500
C365        C  0.16578751  0.97451228  0.16692866     0.04300
N366        N  0.17332229  0.94083526  0.19859975     0.66800
H367        H  0.11176815  0.96061614  0.14130103     0.15700
H368        H  0.19518494  0.52220211  0.13160833     0.15500
N369        N  0.13389620  0.54070956  0.07537859     0.74500
O370        O  0.12810458  0.42710783  0.29853980    -0.38900
O371        O  0.20564152  0.92736278  0.20229102    -0.38800
O372        O  0.11156063  0.56752502  0.08190800    -0.39600
O373        O  0.15348740  0.07143683  0.00799120    -0.39600
C374        C  0.12813246  0.53881696  0.34203378    -0.11900
C375        C  0.11979808  0.51661071  0.39165961     0.05100
C376        C  0.13794242  0.96907430  0.36465799    -0.07200
C377        C  0.17230350  0.97263150  0.33850155    -0.07900
C378        C  0.18627770  0.50558040  0.32735375    -0.02500
C379        C  0.16162950  0.53452893  0.31069958     0.04300
N380        N  0.17006554  0.55955891  0.26255898     0.66800
H381        H  0.10811172  0.55947973  0.32734538     0.15700
H382        H  0.19403447  0.95259606  0.34889658     0.15500
N383        N  0.13449980  0.94097382  0.40926717     0.74500
O384        O  0.14468587  0.57741395  0.23512016    -0.38900
O385        O  0.18917533  0.07554432  0.26441804    -0.38800
O386        O  0.10687538  0.45684126  0.47479177    -0.39600
O387        O  0.13728229  0.94878533  0.46608764    -0.39600
C388        C  0.33212993  0.03125621  0.16499193    -0.11900
C389        C  0.31349225  0.47103526  0.17556891     0.05100
C390        C  0.34054374  0.44305503  0.18532773    -0.07200
C391        C  0.37458016  0.44455891  0.15521915    -0.07900
C392        C  0.39620396  0.01187884  0.15095145    -0.02500
C393        C  0.36614465  0.03639373  0.13842881     0.04300
N394        N  0.36867470  0.06529190  0.09521115     0.66800
H395        H  0.30973279  0.05080472  0.15598250     0.15700
H396        H  0.39585036  0.42396075  0.16447401     0.15500
N397        N  0.33428489  0.41377169  0.22678750     0.74500
O398        O  0.36407654  0.05877345  0.03827997    -0.38900
O399        O  0.38136685  0.55482261  0.08596158    -0.38800
O400        O  0.32052009  0.92539784  0.23223476    -0.39600
O401        O  0.36081979  0.39765803  0.25402285    -0.39600
C402        C  0.34227288  0.52145217  0.28413702    -0.11900
C403        C  0.32099336  0.49351629  0.30552976     0.05100
C404        C  0.33529732  0.46958763  0.35081223    -0.07200
C405        C  0.37092948  0.47331131  0.37205841    -0.07900
C406        C  0.39213128  0.50149610  0.35148519    -0.02500
C407        C  0.37765013  0.52575554  0.30721039     0.04300
N408        N  0.39740663  0.55613243  0.28875183     0.66800
H409        H  0.33113427  0.54021058  0.24992748     0.15700
H410        H  0.38137518  0.45536425  0.40811558     0.15500
N411        N  0.31384511  0.44204995  0.37680528     0.74500
O412        O  0.41690097  0.05112063  0.30497347    -0.38900
O413        O  0.38501015  0.58771039  0.30157239    -0.38800
O414        O  0.31100410  0.90674867  0.36909198    -0.39600
O415        O  0.28596513  0.45093438  0.40907047    -0.39600
C416        C  0.03748151  0.62715865  0.13495453    -0.11900
C417        C  0.00633745  0.61233638  0.10907300     0.05100
C418        C  0.47206848  0.63770637  0.11530026    -0.07200
C419        C  0.47097444  0.67287616  0.14016232    -0.07900
C420        C  0.00244724  0.68278518  0.16143656    -0.02500
C421        C  0.03600521  0.66198846  0.16152197     0.04300
N422        N  0.06852006  0.67537904  0.18910966     0.66800
H423        H  0.06301477  0.61111574  0.13599660     0.15700
H424        H  0.44479618  0.68744604  0.14669221     0.15500
N425        N  0.43829608  0.62239996  0.09816848     0.74500
O426        O  0.09188794  0.65378701  0.21388429    -0.38900
O427        O  0.07540210  0.70829377  0.18496019    -0.38800
O428        O  0.41102354  0.62559887  0.13408428    -0.39600
O429        O  0.43418566  0.61006995  0.04404022    -0.39600
C430        C  0.02938002  0.67894027  0.33062877    -0.11900
C431        C  0.99745211  0.68806871  0.29741248     0.05100
C432        C  0.46936327  0.67046177  0.29871679    -0.07200
C433        C  0.47306764  0.63627515  0.32771533    -0.07900
C434        C  0.00588583  0.62067547  0.35921891    -0.02500
C435        C  0.03363636  0.64596390  0.36175964     0.04300
N436        N  0.06695972  0.63830322  0.39479748     0.66800
H437        H  0.05132594  0.69701156  0.33119018     0.15700
H438        H  0.44936720  0.62021718  0.33273887     0.15500
N439        N  0.43383528  0.68339877  0.27719407     0.74500
O440        O  0.09418455  0.62371749  0.36667858    -0.38900
O441        O  0.07131699  0.65228306  0.44765198    -0.38800
O442        O  0.42510940  0.71679606  0.27676562    -0.39600
O443        O  0.40965595  0.66137396  0.26465331    -0.39600
C444        C  0.46184166  0.83792242  0.12577588    -0.11900
C445        C  0.99318147  0.81734790  0.14631654     0.05100
C446        C  0.02502179  0.83584477  0.13283257    -0.07200
C447        C  0.02142552  0.87026589  0.10595419    -0.07900
C448        C  0.48860729  0.89366307  0.09224169    -0.02500
C449        C  0.45802031  0.87198871  0.09738003     0.04300
N450        N  0.42275126  0.88426190  0.07524324     0.66800
H451        H  0.43790745  0.82221507  0.13152174     0.15700
H452        H  0.04597802  0.88460293  0.09750986     0.15500
N453        N  0.06095714  0.82070338  0.14771389     0.74500
O454        O  0.41732513  0.88719775  0.01768921    -0.38900
O455        O  0.39582883  0.88650145  0.11196220    -0.38800
O456        O  0.06842883  0.78724401  0.14149050    -0.39600
O457        O  0.08637376  0.84114524  0.16135531    -0.39600
C458        C  0.02692123  0.83913404  0.29435170    -0.11900
C459        C  0.99362491  0.82378105  0.28122381     0.05100
C460        C  0.46494731  0.85052154  0.28968624    -0.07200
C461        C  0.46641441  0.88593440  0.31407221    -0.07900
C462        C  0.99534481  0.89518303  0.33010475    -0.02500
C463        C  0.02811013  0.87428615  0.31902916     0.04300
N464        N  0.06280647  0.88790808  0.33484499     0.66800
H465        H  0.05226623  0.82353794  0.28532182     0.15700
H466        H  0.44115017  0.90185730  0.32193344     0.15500
N467        N  0.43015492  0.83672414  0.27379512     0.74500
O468        O  0.08784332  0.86687633  0.35619065    -0.38900
O469        O  0.06969877  0.91997712  0.32178371    -0.38800
O470        O  0.42295319  0.80483352  0.28768407    -0.39600
O471        O  0.40549898  0.85713121  0.24985044    -0.39600
O472        O  0.45305933  0.94959264  0.94032673    -0.79800
O473        O  0.07052129  0.54332350  0.56914569    -0.79800
O474        O  0.06713618  0.99055226  0.92565919    -0.79800
O475        O  0.99115188  0.94725723  0.62438106    -0.79700
O476        O  0.07449378  0.48753903  0.95895770    -0.79900
O477        O  0.49681225  0.91611823  0.55023919    -0.79800
O478        O  0.04641707  0.99767604  0.62710732    -0.79800
O479        O  0.01258891  0.94334394  0.92180613    -0.79800
C480        C  0.98324473  0.92670122  0.91899279     1.09900
C481        C  0.07835058  0.99136796  0.60338626     1.09800
C482        C  0.07084306  0.48624246  0.90173180     1.09900
C483        C  0.49444866  0.92181601  0.60747897     1.09800
O484        O  0.43333605  0.95379154  0.55026844    -0.79800
O485        O  0.04529231  0.55857726  0.94292463    -0.79800
O486        O  0.43460317  0.52030198  0.91995248    -0.79800
O487        O  0.51177645  0.55179935  0.63544559    -0.79800
O488        O  0.00720574  0.58677668  0.55722590    -0.79800
O489        O  0.42505127  0.02185557  0.94652212    -0.79800
O490        O  0.45559236  0.50360364  0.63131343    -0.79700
O491        O  0.48913051  0.56054711  0.91828548    -0.79800
Co492      Co  0.45624424  0.99225575  0.99831187     1.51500
Co493      Co  0.03112535  0.55041209  0.50665805     1.51700
Co494      Co  0.98685336  0.50052113  0.90990177     1.51600
Co495      Co  0.49134832  0.00735205  0.59609123     1.52300
O496        O  0.50275937  0.01485368  0.99914368    -1.41700
C497        C  0.41962626  0.98253363  0.57526252     1.09800
C498        C  0.01645297  0.57289070  0.91953340     1.09900
C499        C  0.41223716  0.49775769  0.93329131     1.09900
C500        C  0.50723779  0.58500598  0.61915685     1.09900
C501        C  0.99073174  0.78283906  0.81081568     0.02700
C502        C  0.99271150  0.78149475  0.74526970     0.02600
C503        C  0.99466877  0.74737767  0.71545750    -0.17900
C504        C  0.99658628  0.71491547  0.74980149     0.02700
C505        C  0.99706883  0.71668120  0.81544654     0.02600
C506        C  0.99403989  0.75063981  0.84510330    -0.17900
H507        H  0.99413988  0.75204532  0.89532846     0.04700
H508        H  0.99552371  0.74605750  0.66525011     0.04700
C509        C  0.28354650  0.49716619  0.73286093     0.02700
C510        C  0.27766823  0.49667590  0.79800058     0.02600
C511        C  0.24199116  0.49456611  0.82113967    -0.17900
C512        C  0.21171743  0.49226358  0.78164419     0.02700
C513        C  0.21737025  0.49185642  0.71641989     0.02600
C514        C  0.25313550  0.49478296  0.69312967    -0.17900
H515        H  0.25734285  0.49518929  0.64337944     0.04700
H516        H  0.23751133  0.49596368  0.87078659     0.04700
C517        C  0.11914160  0.96574348  0.68799064    -0.11900
C518        C  0.11824236  0.50377872  0.61001715     0.05100
C519        C  0.14660696  0.52792748  0.60279010    -0.07200
C520        C  0.18006026  0.52143619  0.63322684    -0.07900
C521        C  0.18598423  0.49152824  0.67210913    -0.02500
C522        C  0.15439788  0.96064711  0.71464453     0.04300
N523        N  0.16118563  0.93218844  0.75891178     0.66800
H524        H  0.09720468  0.94913273  0.70242143     0.15700
H525        H  0.20047913  0.54153919  0.63039067     0.15500
N526        N  0.14146211  0.56011356  0.56709611     0.74500
O527        O  0.13872122  0.41558304  0.72915173    -0.38900
O528        O  0.19283756  0.91736462  0.76466768    -0.38800
O529        O  0.12877083  0.58881507  0.59279716    -0.39600
O530        O  0.15788504  0.02746891  0.51730784    -0.39600
C531        C  0.10994467  0.50930045  0.81919965    -0.11900
C532        C  0.10454687  0.48266472  0.86363517     0.05100
C533        C  0.14804927  0.98439271  0.90761961    -0.07200
C534        C  0.18063685  0.98065375  0.87372299    -0.07900
C535        C  0.17462993  0.49048602  0.81045351    -0.02500
C536        C  0.14504643  0.51510255  0.79566289     0.04300
N537        N  0.15066229  0.54751539  0.76140577     0.66800
H538        H  0.08742036  0.52820527  0.80801050     0.15700
H539        H  0.19953813  0.95782754  0.88261108     0.15500
N540        N  0.14038590  0.95753105  0.95221526     0.74500
O541        O  0.12487135  0.56219360  0.73022459    -0.38900
O542        O  0.20119216  0.06870239  0.75286398    -0.38800
O543        O  0.11839989  0.40428567  0.91986083    -0.39600
O544        O  0.15079661  0.96171020  0.00731881    -0.39600
C545        C  0.32331482  0.00964720  0.63028418    -0.11900
C546        C  0.32073754  0.50175514  0.70501902     0.05100
C547        C  0.35169996  0.47856514  0.71876940    -0.07200
C548        C  0.38633512  0.48609871  0.69459859    -0.07900
C549        C  0.38369307  0.98263313  0.60622266    -0.02500
C550        C  0.35608564  0.00992910  0.59659053     0.04300
N551        N  0.36117545  0.03853694  0.55399594     0.66800
H552        H  0.30239565  0.03097609  0.62307859     0.15700
H553        H  0.40946012  0.46740833  0.70342775     0.15500
N554        N  0.34791939  0.44551410  0.75195473     0.74500
O555        O  0.34766146  0.03663668  0.50041519    -0.38900
O556        O  0.38654840  0.58620856  0.59314426    -0.38800
O557        O  0.31329527  0.91487612  0.74191916    -0.39600
O558        O  0.37421922  0.43227628  0.78371691    -0.39600
C559        C  0.32910439  0.53050446  0.84084361    -0.11900
C560        C  0.30816852  0.49995578  0.84281427     0.05100
C561        C  0.31800761  0.47205501  0.88470730    -0.07200
C562        C  0.35079662  0.47323523  0.91794569    -0.07900
C563        C  0.37370769  0.50229127  0.91162764    -0.02500
C564        C  0.36132753  0.53236440  0.87554946     0.04300
N565        N  0.38138743  0.56456205  0.87233402     0.66800
H566        H  0.32067341  0.55276696  0.81094495     0.15700
H567        H  0.35922656  0.45030661  0.94633188     0.15500
N568        N  0.29660447  0.44099797  0.89035243     0.74500
O569        O  0.43927335  0.05379262  0.77396352    -0.38900
O570        O  0.38991271  0.58074420  0.92156142    -0.38800
O571        O  0.31241190  0.92774259  0.87511826    -0.39600
O572        O  0.26951150  0.44222626  0.92669775    -0.39600
C573        C  0.03194633  0.63600961  0.64795852    -0.11900
C574        C  0.00514178  0.61064498  0.65685267     0.05100
C575        C  0.47833726  0.62549806  0.70304341    -0.07200
C576        C  0.47563589  0.66029700  0.73017215    -0.07900
C577        C  0.99985112  0.67918097  0.71686668    -0.02500
C578        C  0.03004565  0.66973048  0.67817547     0.04300
N579        N  0.05890173  0.69397914  0.66893407     0.66800
H580        H  0.05458687  0.62952045  0.61655321     0.15700
H581        H  0.45216654  0.66776292  0.75911228     0.15500
N582        N  0.45007359  0.60090999  0.71396292     0.74500
O583        O  0.07356754  0.70884502  0.71481355    -0.38900
O584        O  0.07221420  0.69783435  0.61549885    -0.38800
O585        O  0.45824377  0.56847447  0.72783065    -0.39600
O586        O  0.41700636  0.61236406  0.71571600    -0.39600
C587        C  0.03771832  0.66613912  0.85645141    -0.11900
C588        C  0.00249844  0.68304348  0.85290327     0.05100
C589        C  0.47564061  0.67140115  0.88280585    -0.07200
C590        C  0.48094781  0.63585937  0.90455566    -0.07900
C591        C  0.01322064  0.61155565  0.89941683    -0.02500
C592        C  0.04335610  0.63104165  0.88031604     0.04300
N593        N  0.07949510  0.61468012  0.88017878     0.66800
H594        H  0.06087077  0.67976007  0.83816294     0.15700
H595        H  0.45752169  0.62254793  0.92246944     0.15500
N596        N  0.43952395  0.68851098  0.88432986     0.74500
O597        O  0.09091571  0.59756460  0.83267321    -0.38900
O598        O  0.10203237  0.62362565  0.92102756    -0.38800
O599        O  0.43445279  0.71997254  0.90655348    -0.39600
O600        O  0.41212329  0.67057127  0.87116300    -0.39600
C601        C  0.46571962  0.83273225  0.67708004    -0.11900
C602        C  0.99389280  0.81556214  0.70792047     0.05100
C603        C  0.02403272  0.83833105  0.71024825    -0.07200
C604        C  0.02198058  0.87185856  0.67898671    -0.07900
C605        C  0.49315358  0.88935814  0.64834030    -0.02500
C606        C  0.46435959  0.86513890  0.64319093     0.04300
N607        N  0.43342658  0.87273108  0.60365834     0.66800
H608        H  0.44321413  0.81492914  0.67348368     0.15700
H609        H  0.04507472  0.88900769  0.68032891     0.15500
N610        N  0.05748215  0.82717007  0.74135902     0.74500
O611        O  0.43804477  0.87517155  0.54588263    -0.38900
O612        O  0.40157049  0.86859277  0.62407801    -0.38800
O613        O  0.06793546  0.79419975  0.74322298    -0.39600
O614        O  0.07886979  0.85046291  0.76057729    -0.39600
C615        C  0.01708808  0.83117685  0.87326621    -0.11900
C616        C  0.98634923  0.81795507  0.84429348     0.05100
C617        C  0.45419955  0.84538285  0.84743697    -0.07200
C618        C  0.45291916  0.88078530  0.87241671    -0.07900
C619        C  0.98407541  0.88869247  0.89557472    -0.02500
C620        C  0.01654106  0.86628509  0.89741565     0.04300
N621        N  0.04988815  0.87923721  0.92100654     0.66800
H622        H  0.04245263  0.81473060  0.87410344     0.15700
H623        H  0.42788285  0.89755977  0.86880351     0.15500
N624        N  0.42210684  0.83178898  0.81874703     0.74500
O625        O  0.06126286  0.86909596  0.97353995    -0.38900
O626        O  0.07139761  0.89399242  0.88440127    -0.38800
O627        O  0.41504433  0.79894790  0.82369930    -0.39600
O628        O  0.39941494  0.85299171  0.79163032    -0.39600
O629        O  0.96049356  0.43846724  0.44489518    -0.79800
O630        O  0.57288871  0.05733836  0.05695841    -0.79800
O631        O  0.56252801  0.50264741  0.42172648    -0.79800
O632        O  0.49392358  0.45264190  0.12864579    -0.79700
O633        O  0.58058168  0.00026927  0.44639239    -0.79900
O634        O  0.01311968  0.42279237  0.04103775    -0.79800
O635        O  0.54163305  0.50872546  0.13688802    -0.79800
O636        O  0.51271273  0.45310873  0.42089143    -0.79800
C637        C  0.48585210  0.43312700  0.42230525     1.09900
C638        C  0.57334447  0.50366826  0.11239523     1.09800
C639        C  0.57527051  0.00420000  0.39005622     1.09900
C640        C  0.00683651  0.41976520  0.09843140     1.09800
O641        O  0.93508207  0.44333677  0.06535175    -0.79800
O642        O  0.54805952  0.06859023  0.44890906    -0.79800
O643        O  0.93852018  0.01213291  0.42797223    -0.79800
O644        O  0.01585140  0.04564311  0.13377030    -0.79800
O645        O  0.50656885  0.09346129  0.05799944    -0.79800
O646        O  0.92214074  0.49431450  0.47508260    -0.79800
O647        O  0.96077084  0.99601227  0.12859641    -0.79700
O648        O  0.99105993  0.06059026  0.42976322    -0.79800
Co649      Co  0.96634396  0.47192824  0.51764737     1.51500
Co650      Co  0.52930362  0.05945785  0.00041749     1.51700
Co651      Co  0.49083258  0.01361718  0.40720945     1.51600
Co652      Co  0.98774599  0.50078658  0.10525413     1.52300
O653        O  0.99635575  0.51153804  0.49568815    -1.41700
C654        C  0.91855905  0.47120065  0.08960615     1.09800
C655        C  0.51842402  0.08407981  0.42981236     1.09900
C656        C  0.91822978  0.98596913  0.42108849     1.09900
C657        C  0.00892131  0.07840715  0.11675213     1.09900
C658        C  0.50942552  0.29201486  0.30329099     0.02700
C659        C  0.51421647  0.28975950  0.23794648     0.02600
C660        C  0.51560948  0.25511443  0.20958219    -0.17900
C661        C  0.51433380  0.22312715  0.24488017     0.02700
C662        C  0.51229245  0.22554438  0.31039415     0.02600
C663        C  0.50981452  0.26001907  0.33866695    -0.17900
H664        H  0.50682978  0.26199876  0.38860142     0.04700
H665        H  0.51775437  0.25297179  0.15954972     0.04700
C666        C  0.78761996  0.00228826  0.22555331     0.02700
C667        C  0.78182695  0.00463083  0.29055409     0.02600
C668        C  0.74613745  0.00965593  0.31328878    -0.17900
C669        C  0.71595136  0.01128933  0.27313294     0.02700
C670        C  0.72164426  0.00880926  0.20837228     0.02600
C671        C  0.75733247  0.00458858  0.18535286    -0.17900
H672        H  0.76157793  0.00284106  0.13561787     0.04700
H673        H  0.74165215  0.01224456  0.36282713     0.04700
C674        C  0.61284154  0.47782153  0.19699610    -0.11900
C675        C  0.62281780  0.02159293  0.10319746     0.05100
C676        C  0.65012781  0.04685929  0.09762255    -0.07200
C677        C  0.68372407  0.04071939  0.12809556    -0.07900
C678        C  0.69043922  0.00981910  0.16454630    -0.02500
C679        C  0.64794304  0.47008223  0.22206472     0.04300
N680        N  0.65262125  0.44286407  0.26899271     0.66800
H681        H  0.58973443  0.46339838  0.21334146     0.15700
H682        H  0.70374915  0.06124853  0.12656152     0.15500
N683        N  0.64387946  0.07922737  0.06284877     0.74500
O684        O  0.64546499  0.93220125  0.21916006    -0.38900
O685        O  0.68226504  0.42403382  0.27299519    -0.38800
O686        O  0.63090534  0.10758824  0.08925354    -0.39600
O687        O  0.65828701  0.54135190  0.02830316    -0.39600
C688        C  0.61478680  0.03113625  0.31117322    -0.11900
C689        C  0.60862576  0.00244251  0.35140101     0.05100
C690        C  0.64592075  0.49731382  0.41681722    -0.07200
C691        C  0.67836803  0.49194168  0.38273494    -0.07900
C692        C  0.67887691  0.01063684  0.30068241    -0.02500
C693        C  0.65013505  0.03657740  0.28804883     0.04300
N694        N  0.65677993  0.06936301  0.25565607     0.66800
H695        H  0.59292386  0.05138198  0.30298983     0.15700
H696        H  0.69769247  0.47008862  0.39539257     0.15500
N697        N  0.64050745  0.47475146  0.46971885     0.74500
O698        O  0.63137872  0.08540244  0.22552758    -0.38900
O699        O  0.70020894  0.57218582  0.24978832    -0.38800
O700        O  0.64325693  0.91813825  0.39713595    -0.39600
O701        O  0.66761779  0.46440061  0.50238034    -0.39600
C702        C  0.82021761  0.49767899  0.13583171    -0.11900
C703        C  0.82489341  0.00184924  0.19782756     0.05100
C704        C  0.85351803  0.97610847  0.21272071    -0.07200
C705        C  0.88914682  0.98111555  0.19039407    -0.07900
C706        C  0.88131754  0.47031004  0.11688915    -0.02500
C707        C  0.85353391  0.49725703  0.10355674     0.04300
N708        N  0.85852421  0.52491963  0.05853410     0.66800
H709        H  0.79969502  0.51915203  0.12682596     0.15700
H710        H  0.91094285  0.96114622  0.20060673     0.15500
N711        N  0.84632408  0.94350502  0.24534538     0.74500
O712        O  0.83333346  0.53224332  0.02001855    -0.38900
O713        O  0.89487628  0.07529638  0.07029917    -0.38800
O714        O  0.80373154  0.40500407  0.24531385    -0.39600
O715        O  0.87172159  0.92648866  0.27409966    -0.39600
C716        C  0.83908541  0.02923914  0.32966455    -0.11900
C717        C  0.81290666  0.00327331  0.33475185     0.05100
C718        C  0.81948957  0.97380592  0.37507058    -0.07200
C719        C  0.85383882  0.96860462  0.40352827    -0.07900
C720        C  0.88136780  0.99298461  0.39392045    -0.02500
C721        C  0.87325337  0.02422367  0.35775669     0.04300
N722        N  0.90013862  0.04989600  0.34500449     0.66800
H723        H  0.83399102  0.05223655  0.29955965     0.15700
H724        H  0.85910056  0.94524247  0.43266861     0.15500
N725        N  0.79228242  0.94810543  0.38521721     0.74500
O726        O  0.93199615  0.52600951  0.26899338    -0.38900
O727        O  0.89484219  0.08219614  0.36316609    -0.38800
O728        O  0.78334853  0.42988429  0.37095369    -0.39600
O729        O  0.76598004  0.95607836  0.42154777    -0.39600
C730        C  0.53987267  0.12699515  0.18706586    -0.11900
C731        C  0.50724799  0.11769178  0.15785652     0.05100
C732        C  0.97804794  0.13517437  0.16043772    -0.07200
C733        C  0.98112146  0.16991575  0.18547759    -0.07900
C734        C  0.51345131  0.18724569  0.21278527    -0.02500
C735        C  0.54345522  0.16161161  0.21375873     0.04300
N736        N  0.57801643  0.17086832  0.23924497     0.66800
H737        H  0.56351049  0.10818971  0.18508330     0.15700
H738        H  0.95737667  0.18865392  0.18563945     0.15500
N739        N  0.94371010  0.12576910  0.13568075     0.74500
O740        O  0.59692076  0.14803928  0.27020818    -0.38900
O741        O  0.59054253  0.20134535  0.22877620    -0.38800
O742        O  0.92127842  0.11111413  0.17077570    -0.39600
O743        O  0.93256578  0.13992094  0.08568585    -0.39600
C744        C  0.54324454  0.17974564  0.38054846    -0.11900
C745        C  0.51137408  0.19208490  0.34928803     0.05100
C746        C  0.98127547  0.16411523  0.34935772    -0.07200
C747        C  0.98474820  0.12967053  0.37685065    -0.07900
C748        C  0.51644375  0.12229655  0.40569998    -0.02500
C749        C  0.54610757  0.14537567  0.40837815     0.04300
N750        N  0.57964312  0.13428757  0.43816257     0.66800
H751        H  0.56682223  0.19628802  0.38084380     0.15700
H752        H  0.96128763  0.11308266  0.37659032     0.15500
N753        N  0.94659442  0.17627354  0.32320965     0.74500
O754        O  0.60288423  0.11401381  0.40958575    -0.38900
O755        O  0.58881511  0.14992404  0.48751729    -0.38800
O756        O  0.93672467  0.20941614  0.32335029    -0.39600
O757        O  0.92430984  0.15366942  0.30452629    -0.39600
C758        C  0.98486588  0.32577440  0.15765687    -0.11900
C759        C  0.51605516  0.32318051  0.19847944     0.05100
C760        C  0.54403180  0.34834831  0.20434927    -0.07200
C761        C  0.54083745  0.38165575  0.17196834    -0.07900
C762        C  0.01047948  0.38336031  0.12915725    -0.02500
C763        C  0.98282359  0.35805120  0.12368952     0.04300
N764        N  0.95244004  0.36398969  0.08302497     0.66800
H765        H  0.96257772  0.30768225  0.15437829     0.15700
H766        H  0.56134697  0.40141274  0.17830650     0.15500
N767        N  0.57655950  0.33983600  0.24000805     0.74500
O768        O  0.95326175  0.34764852  0.03146777    -0.38900
O769        O  0.92170382  0.37327934  0.10623009    -0.38800
O770        O  0.58836148  0.30743561  0.24597244    -0.39600
O771        O  0.59634377  0.36470860  0.25834390    -0.39600
C772        C  0.53113608  0.34309158  0.36674859    -0.11900
C773        C  0.50240579  0.32741373  0.33572236     0.05100
C774        C  0.96746459  0.33895178  0.33647231    -0.07200
C775        C  0.96318409  0.37334059  0.36473134    -0.07900
C776        C  0.49117247  0.39540176  0.39722258    -0.02500
C777        C  0.52629630  0.37687193  0.39650761     0.04300
N778        N  0.55759820  0.39183649  0.42516597     0.66800
H779        H  0.55782196  0.32899497  0.36732405     0.15700
H780        H  0.93617423  0.38673550  0.36707692     0.15500
N781        N  0.93602170  0.32216108  0.31256849     0.74500
O782        O  0.55557695  0.40399462  0.47989432    -0.38900
O783        O  0.58848386  0.38865005  0.39895219    -0.38800
O784        O  0.92487594  0.29426026  0.33816536    -0.39600
O785        O  0.91713358  0.33730094  0.27033922    -0.39600
O786        O  0.96217234  0.40413936  0.95787719    -0.79800
O787        O  0.58087859  0.99619087  0.55080785    -0.79800
O788        O  0.53901919  0.49941442  0.87893924    -0.79800
O789        O  0.50690662  0.44861266  0.57331753    -0.79700
O790        O  0.57359932  0.05478256  0.94517237    -0.79900
O791        O  0.94344724  0.43294818  0.55667993    -0.79800
O792        O  0.56049119  0.49518547  0.57461184    -0.79800
O793        O  0.48069315  0.45081654  0.88924981    -0.79800
C794        C  0.47224833  0.41781013  0.90385607     1.09900
C795        C  0.58186089  0.52060402  0.57947394     1.09800
C796        C  0.58615436  0.02443770  0.92443528     1.09900
C797        C  0.97341138  0.42013316  0.57826206     1.09800
O798        O  0.92032584  0.49996538  0.53613718    -0.79800
O799        O  0.50967869  0.09516149  0.94403621    -0.79800
O800        O  0.96200752  0.99876941  0.86813974    -0.79800
O801        O  0.99197320  0.05354415  0.58253389    -0.79800
O802        O  0.54811917  0.06484444  0.56194402    -0.79800
O803        O  0.92353529  0.46357359  0.95796477    -0.79800
O804        O  0.93912758  0.00514152  0.57933166    -0.79700
O805        O  0.01793990  0.04802889  0.87043434    -0.79800
Co806      Co  0.97219073  0.44739151  0.99544812     1.51500
Co807      Co  0.54709724  0.02371913  0.50158784     1.51700
Co808      Co  0.51313169  0.00289330  0.90453867     1.51600
Co809      Co  0.00452250  0.49540557  0.59186752     1.52300
O810        O  0.99223841  0.49534837  0.00837013    -1.41700
C811        C  0.92060552  0.50475719  0.59444038     1.09800
C812        C  0.51112981  0.08796731  0.88733922     1.09900
C813        C  0.93051735  0.00973987  0.88893608     1.09900
C814        C  0.02005784  0.07195962  0.58026607     1.09900
C815        C  0.49044155  0.28899583  0.75065010     0.02700
C816        C  0.49331794  0.28878280  0.68510594     0.02600
C817        C  0.49968335  0.25571988  0.65356712    -0.17900
C818        C  0.50379035  0.22304269  0.68604233     0.02700
C819        C  0.50027216  0.22290962  0.75119421     0.02600
C820        C  0.49414188  0.25598772  0.78297286    -0.17900
H821        H  0.49186313  0.25600489  0.83308538     0.04700
H822        H  0.50131290  0.25536063  0.60337695     0.04700
C823        C  0.78448930  0.98972317  0.71495579     0.02700
C824        C  0.78777931  0.00008119  0.77801735     0.02600
C825        C  0.75601251  0.00628841  0.81395759    -0.17900
C826        C  0.72123434  0.00201676  0.78868612     0.02700
C827        C  0.71791420  0.99062347  0.72641074     0.02600
C828        C  0.74963398  0.98516725  0.68994863    -0.17900
H829        H  0.74713843  0.97753287  0.64154970     0.04700
H830        H  0.75826419  0.01540274  0.86160854     0.04700
C831        C  0.62393020  0.48021313  0.64134410    -0.11900
C832        C  0.61075288  0.99767667  0.64419131     0.05100
C833        C  0.63954262  0.01868489  0.62327559    -0.07200
C834        C  0.67401708  0.01476598  0.64988093    -0.07900
C835        C  0.68151209  0.98949349  0.69623449    -0.02500
C836        C  0.65678442  0.47179665  0.67277970     0.04300
N837        N  0.66123573  0.43811692  0.70563690     0.66800
H838        H  0.60227142  0.46143083  0.64401165     0.15700
H839        H  0.69515075  0.03218828  0.63466377     0.15500
N840        N  0.63442931  0.04396635  0.57386188     0.74500
O841        O  0.63591312  0.92229969  0.78475278    -0.38900
O842        O  0.69248728  0.42241811  0.71134051    -0.38800
O843        O  0.62317204  0.07591226  0.58630660    -0.39600
O844        O  0.66053267  0.56842158  0.51423141    -0.39600
C845        C  0.63304583  0.04613410  0.85370017    -0.11900
C846        C  0.62316913  0.02025211  0.89688886     0.05100
C847        C  0.63309531  0.46233591  0.88056727    -0.07200
C848        C  0.66735666  0.46437677  0.85179730    -0.07900
C849        C  0.68859878  0.01043080  0.82783734    -0.02500
C850        C  0.66525466  0.04147729  0.81840005     0.04300
N851        N  0.67296829  0.06779042  0.77204124     0.66800
H852        H  0.61481055  0.06893377  0.84530994     0.15700
H853        H  0.68889432  0.44426134  0.86267097     0.15500
N854        N  0.62864401  0.43559712  0.92709461     0.74500
O855        O  0.64707594  0.08464883  0.74422372    -0.38900
O856        O  0.68336397  0.56628295  0.77220092    -0.38800
O857        O  0.64470103  0.92764706  0.93058714    -0.39600
O858        O  0.63423318  0.44348388  0.98322681    -0.39600
C859        C  0.82401426  0.52890576  0.65630345    -0.11900
C860        C  0.81712691  0.98392008  0.67425041     0.05100
C861        C  0.84412430  0.95616075  0.68574796    -0.07200
C862        C  0.87679504  0.95490035  0.65158348    -0.07900
C863        C  0.88603938  0.50608492  0.63108711    -0.02500
C864        C  0.85664104  0.53174141  0.62206111     0.04300
N865        N  0.85949536  0.56115058  0.57977550     0.66800
H866        H  0.80171141  0.54885677  0.64950449     0.15700
H867        H  0.89795378  0.93432034  0.66185149     0.15500
N868        N  0.83903850  0.92943140  0.73232414     0.74500
O869        O  0.86853444  0.55510985  0.52403283    -0.38900
O870        O  0.88532192  0.05667853  0.55327430    -0.38800
O871        O  0.81812192  0.42253868  0.72956451    -0.39600
O872        O  0.86600552  0.91709270  0.76341002    -0.39600
C873        C  0.84839836  0.02867396  0.78347032    -0.11900
C874        C  0.82417702  0.00392367  0.80721376     0.05100
C875        C  0.83568776  0.98157195  0.85660480    -0.07200
C876        C  0.87154515  0.98248496  0.87815031    -0.07900
C877        C  0.89628290  0.00650111  0.85362141    -0.02500
C878        C  0.88427166  0.03049044  0.80663223     0.04300
N879        N  0.90700801  0.05794290  0.78444039     0.66800
H880        H  0.83928450  0.04664956  0.74660679     0.15700
H881        H  0.87979193  0.96506471  0.91636475     0.15500
N882        N  0.81121811  0.95805141  0.88590953     0.74500
O883        O  0.88680177  0.57588481  0.81943027    -0.38900
O884        O  0.89286494  0.08856104  0.77052739    -0.38800
O885        O  0.79302879  0.41443636  0.84954454    -0.39600
O886        O  0.79369861  0.96897506  0.93350375    -0.39600
C887        C  0.54633978  0.13469170  0.62210922    -0.11900
C888        C  0.51495901  0.11753118  0.60232294     0.05100
C889        C  0.98407904  0.12994316  0.60823077    -0.07200
C890        C  0.98274886  0.16474831  0.63370070    -0.07900
C891        C  0.50941017  0.18862545  0.65131216    -0.02500
C892        C  0.54408563  0.17006554  0.64660895     0.04300
N893        N  0.57687171  0.18619378  0.66776841     0.66800
H894        H  0.57267686  0.12025321  0.61983685     0.15700
H895        H  0.95649846  0.17941660  0.63881816     0.15500
N896        N  0.95056907  0.11519115  0.58874355     0.74500
O897        O  0.60357537  0.16657206  0.68733609    -0.38900
O898        O  0.58041178  0.21974636  0.66283007    -0.38800
O899        O  0.92520295  0.11138823  0.62749196    -0.39600
O900        O  0.94496596  0.10924706  0.53193305    -0.39600
C901        C  0.53632460  0.17517226  0.80888696    -0.11900
C902        C  0.50246015  0.18810358  0.78595902     0.05100
C903        C  0.97689486  0.16001320  0.79490786    -0.07200
C904        C  0.97996104  0.12598266  0.82350967    -0.07900
C905        C  0.50996708  0.11956606  0.84485269    -0.02500
C906        C  0.54029504  0.14187102  0.83964710     0.04300
N907        N  0.57493287  0.13227834  0.86771419     0.66800
H908        H  0.55972744  0.19174834  0.80443520     0.15700
H909        H  0.95557963  0.11122928  0.83060123     0.15500
N910        N  0.94174241  0.17399858  0.77424298     0.74500
O911        O  0.60405491  0.13803916  0.83876338    -0.38900
O912        O  0.57661983  0.12708501  0.92539400    -0.38800
O913        O  0.93084413  0.20596950  0.78748505    -0.39600
O914        O  0.92023764  0.15364349  0.74700517    -0.39600
C915        C  0.95627639  0.33082324  0.65612583    -0.11900
C916        C  0.48875205  0.32292289  0.64918567     0.05100
C917        C  0.51926523  0.34030180  0.62621588    -0.07200
C918        C  0.51458446  0.37530231  0.60235280    -0.07900
C919        C  0.97738930  0.38216958  0.59910991    -0.02500
C920        C  0.94887906  0.36478131  0.62960262     0.04300
N921        N  0.91312180  0.38179950  0.63806727     0.66800
H922        H  0.93488201  0.31813970  0.68150054     0.15700
H923        H  0.53877720  0.38873307  0.58846761     0.15500
N924        N  0.55548153  0.32373779  0.63024008     0.74500
O925        O  0.89338679  0.38904262  0.59142011    -0.38900
O926        O  0.89814374  0.38092248  0.69073310    -0.38800
O927        O  0.56290860  0.29386265  0.60344964    -0.39600
O928        O  0.58123885  0.34142485  0.65179683    -0.39600
C929        C  0.50868500  0.35086771  0.78131323    -0.11900
C930        C  0.48363097  0.32349618  0.78603776     0.05100
C931        C  0.95923351  0.31974597  0.83078438    -0.07200
C932        C  0.95430696  0.35167294  0.86577526    -0.07900
C933        C  0.47496719  0.38764550  0.85822628    -0.02500
C934        C  0.50447706  0.38291658  0.81630693     0.04300
N935        N  0.53217317  0.40871244  0.81272773     0.66800
H936        H  0.53271402  0.34660890  0.75239335     0.15700
H937        H  0.93173949  0.35413174  0.89839900     0.15500
N938        N  0.93330257  0.29232282  0.83699319     0.74500
O939        O  0.55093538  0.41533378  0.86011027    -0.38900
O940        O  0.54199068  0.42009100  0.76059329    -0.38800
O941        O  0.92308992  0.28291965  0.89013837    -0.39600
O942        O  0.91684755  0.28122464  0.78969878    -0.39600
O943        O  0.99761541  0.91629895  0.43155932    -0.79800
O944        O  0.57681394  0.50213860  0.05527785    -0.79800
O945        O  0.54327380  0.01386005  0.37011981    -0.79800
O946        O  0.51455595  0.94990928  0.07052668    -0.79700
O947        O  0.57094965  0.55823091  0.44986033    -0.79900
O948        O  0.95575726  0.94053532  0.04951962    -0.79800
O949        O  0.56614504  0.99986860  0.07222644    -0.79800
O950        O  0.48945665  0.96291606  0.36479889    -0.79800
C951        C  0.49819394  0.93010791  0.37962993     1.09900
C952        C  0.58571397  0.02690532  0.07584778     1.09800
C953        C  0.58295094  0.52883066  0.42559403     1.09900
C954        C  0.98517004  0.92485780  0.06891532     1.09800
O955        O  0.92262899  0.00626675  0.05142621    -0.79800
O956        O  0.50987090  0.59697558  0.45205733    -0.79800
O957        O  0.95018250  0.50103705  0.38437194    -0.79800
O958        O  0.98264659  0.55411173  0.09649514    -0.79800
O959        O  0.53773566  0.56696971  0.05961236    -0.79800
O960        O  0.93022832  0.95446495  0.43635924    -0.79800
O961        O  0.93465030  0.50035463  0.09288929    -0.79700
O962        O  0.99785504  0.55665515  0.37593961    -0.79800
Co963      Co  0.97442824  0.94837370  0.49163316     1.51500
Co964      Co  0.53967452  0.52309236  0.00446846     1.51700
Co965      Co  0.50931706  0.50552944  0.40570492     1.51600
Co966      Co  0.01369387  0.99448244  0.09331670     1.52300
O967        O  0.00157453  0.99276942  0.49803324    -1.41700
C968        C  0.92857740  0.00449106  0.10807765     1.09800
C969        C  0.50739328  0.59118997  0.39502402     1.09900
C970        C  0.92104092  0.49992904  0.41644082     1.09900
C971        C  0.00897489  0.57425408  0.08675456     1.09900
C972        C  0.49813949  0.79254963  0.25168624     0.02700
C973        C  0.49708318  0.79070812  0.18614198     0.02600
C974        C  0.49801290  0.75674343  0.15644109    -0.17900
C975        C  0.50005961  0.72455808  0.19077390     0.02700
C976        C  0.49982039  0.72606747  0.25634702     0.02600
C977        C  0.49965229  0.76019428  0.28618476    -0.17900
H978        H  0.50008001  0.76161014  0.33637819     0.04700
H979        H  0.49789942  0.75533179  0.10622251     0.04700
C980        C  0.78111765  0.47968656  0.22291867     0.02700
C981        C  0.78388415  0.49098364  0.28570912     0.02600
C982        C  0.75210622  0.50199044  0.31853849    -0.17900
C983        C  0.71752070  0.50099348  0.29164905     0.02700
C984        C  0.71428487  0.48792481  0.23024568     0.02600
C985        C  0.74619933  0.47820833  0.19612025    -0.17900
H986        H  0.74385908  0.46986629  0.14804258     0.04700
H987        H  0.75433461  0.51194986  0.36574762     0.04700
C988        C  0.63087088  0.98951837  0.13622219    -0.11900
C989        C  0.60791983  0.50188832  0.14763957     0.05100
C990        C  0.63875016  0.51873047  0.12308880    -0.07200
C991        C  0.67323854  0.51159238  0.14866843    -0.07900
C992        C  0.67819521  0.48836288  0.19885649    -0.02500
C993        C  0.66453566  0.98291408  0.16573546     0.04300
N994        N  0.67161553  0.94934222  0.19790738     0.66800
H995        H  0.61065435  0.96927268  0.13948078     0.15700
H996        H  0.69620806  0.52582610  0.13109074     0.15500
N997        N  0.63550086  0.54356918  0.07237547     0.74500
O998        O  0.62604852  0.43532681  0.30309367    -0.38900
O999        O  0.70371579  0.93527441  0.20115852    -0.38800
O1000       O  0.61301431  0.57047301  0.07550584    -0.39600
O1001       O  0.65448859  0.08039719  0.00724896    -0.39600
C1002       C  0.62773244  0.54670067  0.34784195    -0.11900
C1003       C  0.61988328  0.52476273  0.39833162     0.05100
C1004       C  0.63838768  0.97794115  0.36641890    -0.07200
C1005       C  0.67231032  0.98152942  0.33892797    -0.07900
C1006       C  0.68524745  0.51246113  0.33015361    -0.02500
C1007       C  0.66041829  0.54139942  0.31390849     0.04300
N1008       N  0.66775416  0.56533338  0.26355563     0.66800
H1009       H  0.60765540  0.56747559  0.33375569     0.15700
H1010       H  0.69433531  0.96181932  0.34937436     0.15500
N1011       N  0.63581791  0.95057883  0.41261288     0.74500
O1012       O  0.64171958  0.58206931  0.23588140    -0.38900
O1013       O  0.68703716  0.08400954  0.26099594    -0.38800
O1014       O  0.61045548  0.46034047  0.47813018    -0.39600
O1015       O  0.63954301  0.95933048  0.46885218    -0.39600
C1016       C  0.83173147  0.02934334  0.15619577    -0.11900
C1017       C  0.81405729  0.47284580  0.18283577     0.05100
C1018       C  0.84100953  0.44503532  0.19467181    -0.07200
C1019       C  0.87442771  0.44435108  0.16194856    -0.07900
C1020       C  0.89559320  0.00832204  0.14739378    -0.02500
C1021       C  0.86579811  0.03174871  0.12842081     0.04300
N1022       N  0.86826145  0.05532573  0.07615934     0.66800
H1023       H  0.80983354  0.04861586  0.14319762     0.15700
H1024       H  0.89573089  0.42420665  0.17347921     0.15500
N1025       N  0.83494546  0.41764358  0.23977906     0.74500
O1026       O  0.84487707  0.05427016  0.03325054    -0.38900
O1027       O  0.88228550  0.54786034  0.06767165    -0.38800
O1028       O  0.81611495  0.92897360  0.23843013    -0.39600
O1029       O  0.86144751  0.40353590  0.27000430    -0.39600
C1030       C  0.84624965  0.51449588  0.29535193    -0.11900
C1031       C  0.81926982  0.49280275  0.31878955     0.05100
C1032       C  0.82478179  0.47600696  0.37694997    -0.07200
C1033       C  0.85733260  0.48070722  0.40937302    -0.07900
C1034       C  0.88526861  0.50076322  0.38430083    -0.02500
C1035       C  0.87935039  0.51802531  0.32669084     0.04300
N1036       N  0.90588290  0.54039991  0.30029056     0.66800
H1037       H  0.84157348  0.52899483  0.25246211     0.15700
H1038       H  0.86151582  0.46695810  0.45314802     0.15500
N1039       N  0.79785108  0.45376500  0.40338937     0.74500
O1040       O  0.92537946  0.04204447  0.30649338    -0.38900
O1041       O  0.89787034  0.57368026  0.29407751    -0.38800
O1042       O  0.79859114  0.91555394  0.36924730    -0.39600
O1043       O  0.78989767  0.45666019  0.46025218    -0.39600
C1044       C  0.53834272  0.63517639  0.12384325    -0.11900
C1045       C  0.50618734  0.61827180  0.10731305     0.05100
C1046       C  0.97283225  0.63325783  0.10937460    -0.07200
C1047       C  0.97147478  0.66828059  0.13486449    -0.07900
C1048       C  0.50303240  0.68924699  0.15764936    -0.02500
C1049       C  0.53712292  0.67031678  0.14891336     0.04300
N1050       N  0.57060402  0.68614290  0.16629829     0.66800
H1051       H  0.56463617  0.62072817  0.11855313     0.15700
H1052       H  0.94577337  0.68417643  0.13505437     0.15500
N1053       N  0.93996433  0.61953889  0.08414606     0.74500
O1054       O  0.59480769  0.66782579  0.19568578    -0.38900
O1055       O  0.57770835  0.71698349  0.14662123    -0.38800
O1056       O  0.90978623  0.62561212  0.11172008    -0.39600
O1057       O  0.94029393  0.60466630  0.03129762    -0.39600
C1058       C  0.53344555  0.67923919  0.31984046    -0.11900
C1059       C  0.50033143  0.69192852  0.29350636     0.05100
C1060       C  0.96862275  0.66382208  0.29701942    -0.07200
C1061       C  0.97360193  0.62988854  0.32652361    -0.07900
C1062       C  0.50623576  0.62375413  0.35447848    -0.02500
C1063       C  0.53650323  0.64618249  0.35147385     0.04300
N1064       N  0.57051670  0.63629338  0.38125077     0.66800
H1065       H  0.55714059  0.69551598  0.31651578     0.15700
H1066       H  0.95223716  0.61194074  0.32682439     0.15500
N1067       N  0.93378201  0.67358815  0.26910043     0.74500
O1068       O  0.59992993  0.63715501  0.35076858    -0.38900
O1069       O  0.57205595  0.63601326  0.43970249    -0.38800
O1070       O  0.92216614  0.70624036  0.26717508    -0.39600
O1071       O  0.91279728  0.64942310  0.25207274    -0.39600
C1072       C  0.95887441  0.83291423  0.12979545    -0.11900
C1073       C  0.49573959  0.82432866  0.14836207     0.05100
C1074       C  0.52690952  0.84487281  0.14040847    -0.07200
C1075       C  0.52278235  0.87925889  0.11330664    -0.07900
C1076       C  0.98696471  0.88658105  0.09072895    -0.02500
C1077       C  0.95545459  0.86698197  0.10170908     0.04300
N1078       N  0.91965864  0.88176489  0.08722719     0.66800
H1079       H  0.93439904  0.81888598  0.14048453     0.15700
H1080       H  0.54674631  0.89503284  0.10899799     0.15500
N1081       N  0.56270537  0.83163792  0.16028570     0.74500
O1082       O  0.90949220  0.88359062  0.03139629    -0.38900
O1083       O  0.89644699  0.88746313  0.12999408    -0.38800
O1084       O  0.57169292  0.79831791  0.15790094    -0.39600
O1085       O  0.58662681  0.85349779  0.17517977    -0.39600
C1086       C  0.53061527  0.84225732  0.30290227    -0.11900
C1087       C  0.49749231  0.82842908  0.28397629     0.05100
C1088       C  0.96064428  0.84453037  0.29169580    -0.07200
C1089       C  0.96192149  0.88015297  0.31507660    -0.07900
C1090       C  0.49957785  0.89952888  0.33435439    -0.02500
C1091       C  0.53197291  0.87736750  0.32783043     0.04300
N1092       N  0.56647218  0.89021060  0.34689324     0.66800
H1093       H  0.55573310  0.82575348  0.29725231     0.15700
H1094       H  0.93655418  0.89507364  0.32667668     0.15500
N1095       N  0.92579261  0.82925375  0.28185184     0.74500
O1096       O  0.59038302  0.86879951  0.37061465    -0.38900
O1097       O  0.57442027  0.92208109  0.33445109    -0.38800
O1098       O  0.92057938  0.79741387  0.29888475    -0.39600
O1099       O  0.89898674  0.84875496  0.26247526    -0.39600
O1100       O  0.95366508  0.94293334  0.93683203    -0.79800
O1101       O  0.57097647  0.55203493  0.56223449    -0.79800
O1102       O  0.56603445  0.99783934  0.92337002    -0.79800
O1103       O  0.49025207  0.95438344  0.62843766    -0.79700
O1104       O  0.57339491  0.49089556  0.95992387    -0.79900
O1105       O  0.99218933  0.90975050  0.54462130    -0.79800
O1106       O  0.54456690  0.00577172  0.63070027    -0.79800
O1107       O  0.51178012  0.95045079  0.92273480    -0.79800
C1108       C  0.48264641  0.93342359  0.92205669     1.09900
C1109       C  0.57651929  0.99835109  0.60786862     1.09800
C1110       C  0.57009449  0.49085022  0.90264386     1.09900
C1111       C  0.99265844  0.91492717  0.60206447     1.09800
O1112       O  0.93108267  0.94960783  0.54831027    -0.79800
O1113       O  0.54627600  0.56269018  0.94354138    -0.79800
O1114       O  0.93523534  0.51373091  0.91705697    -0.79800
O1115       O  0.00838194  0.54647187  0.63117644    -0.79800
O1116       O  0.50587602  0.59308195  0.56316598    -0.79800
O1117       O  0.92640989  0.01569983  0.94540964    -0.79800
O1118       O  0.95133010  0.50130256  0.62204620    -0.79700
O1119       O  0.98871430  0.55416301  0.91516394    -0.79800
Co1120     Co  0.95693609  0.98478192  0.99611687     1.51500
Co1121     Co  0.52737395  0.55884122  0.50577588     1.51700
Co1122     Co  0.48631773  0.50697314  0.91147683     1.51600
Co1123     Co  0.99269940  0.00048497  0.59436508     1.52300
O1124       O  0.00346022  0.00741564  0.99967894    -1.41700
C1125       C  0.91910854  0.97848837  0.57490195     1.09800
C1126       C  0.51762501  0.57828250  0.92192010     1.09900
C1127       C  0.91245675  0.49175193  0.93079377     1.09900
C1128       C  0.00549718  0.57945988  0.61345420     1.09900
C1129       C  0.49248993  0.78889833  0.81666516     0.02700
C1130       C  0.49492789  0.78809717  0.75107253     0.02600
C1131       C  0.49750454  0.75412436  0.72045732    -0.17900
C1132       C  0.49957190  0.72133577  0.75404645     0.02700
C1133       C  0.49970776  0.72267638  0.81974170     0.02600
C1134       C  0.49607861  0.75641439  0.85015408    -0.17900
H1135       H  0.49597882  0.75743736  0.90040065     0.04700
H1136       H  0.49853937  0.75318702  0.67024217     0.04700
C1137       C  0.78268999  0.49672438  0.72833141     0.02700
C1138       C  0.77813067  0.49395741  0.79370413     0.02600
C1139       C  0.74269669  0.49203107  0.81863127    -0.17900
C1140       C  0.71146716  0.49289487  0.78065964     0.02700
C1141       C  0.71616205  0.49461218  0.71533800     0.02600
C1142       C  0.75151321  0.49656816  0.69046148    -0.17900
H1143       H  0.75477753  0.49808602  0.64057945     0.04700
H1144       H  0.73925216  0.49133357  0.86853599     0.04700
C1145       C  0.61810056  0.97171425  0.69004544    -0.11900
C1146       C  0.61841168  0.51247839  0.60754840     0.05100
C1147       C  0.64758056  0.53559083  0.60229091    -0.07200
C1148       C  0.68027238  0.52761928  0.63417548    -0.07900
C1149       C  0.68451859  0.49699431  0.67208168    -0.02500
C1150       C  0.65369478  0.96649021  0.71518493     0.04300
N1151       N  0.66155820  0.93671481  0.75643358     0.66800
H1152       H  0.59679693  0.95397293  0.70303372     0.15700
H1153       H  0.70165150  0.54677236  0.63244969     0.15500
N1154       N  0.64433174  0.56757324  0.56583885     0.74500
O1155       O  0.63362082  0.42265871  0.72553205    -0.38900
O1156       O  0.69344700  0.92211514  0.75954501    -0.38800
O1157       O  0.63117675  0.59657541  0.58984811    -0.39600
O1158       O  0.64961922  0.03721832  0.52217088    -0.39600
C1159       C  0.61089607  0.51498648  0.82338476    -0.11900
C1160       C  0.60408802  0.48729175  0.86510959     0.05100
C1161       C  0.64631300  0.98880726  0.90511908    -0.07200
C1162       C  0.67920834  0.98489443  0.87174286    -0.07900
C1163       C  0.67445424  0.49247853  0.81075158    -0.02500
C1164       C  0.64611497  0.51913264  0.79887720     0.04300
N1165       N  0.65311406  0.55172237  0.76609033     0.66800
H1166       H  0.58953790  0.53569795  0.81485121     0.15700
H1167       H  0.69691326  0.96102646  0.87812895     0.15500
N1168       N  0.63665972  0.96011749  0.94540465     0.74500
O1169       O  0.62768554  0.56832049  0.73673120    -0.38900
O1170       O  0.70547407  0.07548590  0.76046330    -0.38800
O1171       O  0.62736412  0.40283365  0.91131601    -0.39600
O1172       O  0.62438502  0.96710393  0.99898229    -0.39600
C1173       C  0.82286502  0.00879194  0.62690613    -0.11900
C1174       C  0.81919291  0.50007119  0.69727311     0.05100
C1175       C  0.84859729  0.47435406  0.70551273    -0.07200
C1176       C  0.88185620  0.47841857  0.67432800    -0.07900
C1177       C  0.88302849  0.98031521  0.60561146    -0.02500
C1178       C  0.85573682  0.00761370  0.59306866     0.04300
N1179       N  0.86082664  0.03424739  0.54648918     0.66800
H1180       H  0.80235921  0.03030310  0.61823527     0.15700
H1181       H  0.90395593  0.45818078  0.68069311     0.15500
N1182       N  0.84426103  0.44245495  0.74123513     0.74500
O1183       O  0.83661544  0.03987443  0.50558583    -0.38900
O1184       O  0.84771050  0.59250796  0.59552750    -0.38800
O1185       O  0.80824341  0.91615554  0.73950435    -0.39600
O1186       O  0.86923080  0.43141354  0.77783207    -0.39600
C1187       C  0.83145299  0.52541814  0.83482961    -0.11900
C1188       C  0.80953696  0.49559682  0.83714585     0.05100
C1189       C  0.81761790  0.46841376  0.88142229    -0.07200
C1190       C  0.85005742  0.46908479  0.91583527    -0.07900
C1191       C  0.87412505  0.49709040  0.90858437    -0.02500
C1192       C  0.86300487  0.52705673  0.87124025     0.04300
N1193       N  0.88318885  0.55927197  0.86974252     0.66800
H1194       H  0.82381772  0.54769207  0.80444669     0.15700
H1195       H  0.85733174  0.44653589  0.94583549     0.15500
N1196       N  0.79421385  0.43908277  0.89004346     0.74500
O1197       O  0.94059528  0.05098656  0.77409720    -0.38900
O1198       O  0.89190704  0.57437983  0.91988270    -0.38800
O1199       O  0.81341834  0.92471067  0.87338878    -0.39600
O1200       O  0.77940032  0.43480078  0.94215979    -0.39600
C1201       C  0.53448441  0.64147328  0.65289134    -0.11900
C1202       C  0.50786116  0.61602160  0.66316454     0.05100
C1203       C  0.97552997  0.61952193  0.69677200    -0.07200
C1204       C  0.97269043  0.65397102  0.72504032    -0.07900
C1205       C  0.50259891  0.68555564  0.72073541    -0.02500
C1206       C  0.53257546  0.67570604  0.68173497     0.04300
N1207       N  0.56114374  0.70004402  0.67064149     0.66800
H1208       H  0.55685807  0.63473340  0.62103036     0.15700
H1209       H  0.94900427  0.66117643  0.75354324     0.15500
N1210       N  0.94739143  0.59467058  0.70653137     0.74500
O1211       O  0.57561359  0.71625000  0.71530693    -0.38900
O1212       O  0.57428099  0.70287724  0.61683854    -0.38800
O1213       O  0.95558455  0.56300788  0.72475966    -0.39600
O1214       O  0.91415403  0.60521632  0.70222752    -0.39600
C1215       C  0.54012126  0.67077953  0.85657757    -0.11900
C1216       C  0.50533415  0.68874926  0.85646024     0.05100
C1217       C  0.97251868  0.66478009  0.87636515    -0.07200
C1218       C  0.97816090  0.62913692  0.89766528    -0.07900
C1219       C  0.51553386  0.61723157  0.90328813    -0.02500
C1220       C  0.54576709  0.63569811  0.88082795     0.04300
N1221       N  0.58197526  0.61900351  0.87960818     0.66800
H1222       H  0.56301489  0.68395172  0.83637919     0.15700
H1223       H  0.95470876  0.61496622  0.91300653     0.15500
N1224       N  0.93602278  0.68118865  0.87603695     0.74500
O1225       O  0.60108769  0.62060331  0.83104339    -0.38900
O1226       O  0.59751361  0.61023733  0.92987666    -0.38800
O1227       O  0.93036396  0.71382068  0.89207474    -0.39600
O1228       O  0.90893114  0.66206967  0.86685601    -0.39600
C1229       C  0.96351600  0.82628071  0.67174858    -0.11900
C1230       C  0.49573873  0.82258890  0.71449218     0.05100
C1231       C  0.52509982  0.84625433  0.71859143    -0.07200
C1232       C  0.52289185  0.87965928  0.68684547    -0.07900
C1233       C  0.99173979  0.88224466  0.64215309    -0.02500
C1234       C  0.96245927  0.85863739  0.63791321     0.04300
N1235       N  0.93136767  0.86690758  0.59920882     0.66800
H1236       H  0.94049293  0.80906143  0.66917733     0.15700
H1237       H  0.54556663  0.89729965  0.68927920     0.15500
N1238       N  0.55799521  0.83619722  0.75217941     0.74500
O1239       O  0.93496592  0.86547665  0.54101671    -0.38900
O1240       O  0.89962175  0.86691587  0.62218285    -0.38800
O1241       O  0.56953074  0.80355048  0.75475780    -0.39600
O1242       O  0.57775608  0.86024385  0.77375523    -0.39600
C1243       C  0.51709818  0.83704860  0.88230996    -0.11900
C1244       C  0.48717256  0.82376937  0.85094559     0.05100
C1245       C  0.95341284  0.83974379  0.84254300    -0.07200
C1246       C  0.95260726  0.87481631  0.86875423    -0.07900
C1247       C  0.48384353  0.89498676  0.90056880    -0.02500
C1248       C  0.51608937  0.87236661  0.90588134     0.04300
N1249       N  0.54862520  0.88498084  0.93346229     0.66800
H1250       H  0.54234734  0.82052811  0.88524701     0.15700
H1251       H  0.92750568  0.89161499  0.86701592     0.15500
N1252       N  0.92093983  0.82684305  0.81405465     0.74500
O1253       O  0.56092997  0.87015514  0.98212271    -0.38900
O1254       O  0.56952625  0.90342808  0.90133442    -0.38800
O1255       O  0.91363852  0.79399863  0.81758015    -0.39600
O1256       O  0.89835027  0.84862679  0.78796752    -0.39600
loop_ 
_geom_bond_atom_site_label_1 
_geom_bond_atom_site_label_2 
_geom_bond_distance 
_geom_bond_site_symmetry_2 
_ccdc_geom_bond_type 
O1          Co21   2.036       .  S
O1          C637   1.275       .  A
O2          Co22   2.008       .  S
O2          C324   1.271       .  A
O3          C325   1.260       .  A
O3         Co337   1.986       .  S
O4          C640   1.278   1_655  A
O4         Co652   2.056       .  S
O5         Co179   1.884   1_565  S
O5           C11   1.237       .  A
O6           C12   1.267       .  A
O6         Co178   1.979   1_554  S
O7           C10   1.278       .  A
O7         Co652   2.070   1_455  S
O8            C9   1.255   1_455  A
O8         Co337   1.993       .  S
C9          O629   1.256       .  A
C9          C148   1.493       .  S
C10         O316   1.240       .  A
C10         C361   1.476       .  S
C11         O317   1.283   1_565  A
C11          C61   1.479       .  S
C12         O632   1.279       .  A
C12         C134   1.507       .  S
O13          C26   1.274       .  A
O13        Co178   2.025   1_554  S
O14        Co179   2.030       .  S
O14          C27   1.272       .  A
O15          C28   1.261   1_545  A
O15        Co651   1.966       .  S
O16          C29   1.285       .  A
O16        Co338   2.083       .  S
O17         Co22   1.926       .  S
O17         C657   1.251       .  A
O18         Co21   1.900       .  S
O18         C342   1.244       .  A
O19         C340   1.282       .  A
O19        Co338   2.076       .  S
O20         C655   1.268       .  A
O20        Co651   1.999       .  S
Co21        O163   2.013       .  S
Co21        O170   1.919       .  S
Co21         O25   1.965       .  S
Co22        O162   2.010   1_554  S
Co22        O171   1.913   1_554  S
Co22       O1124   1.955   1_554  S
Co23        O317   2.085   1_655  S
Co23        O322   2.084   1_545  S
Co23        O643   1.966       .  S
Co23        O648   1.992       .  S
Co23        O967   2.119   1_645  S
Co24        O632   2.054       .  S
Co24        O635   2.071       .  S
Co24        O330   1.985       .  S
Co24        O333   1.967       .  S
Co24        O182   2.099       .  S
O25       Co1121   1.985       .  S
O25        Co965   2.122       .  S
O25        Co181   2.120       .  S
C26         O333   1.260       .  A
C26          C78   1.480       .  S
C27         O648   1.265   1_455  A
C27         C120   1.510       .  S
C28         O332   1.274       .  A
C28          C92   1.483       .  S
C29         O645   1.251       .  A
C29         C731   1.489       .  S
C30         C145   1.490       .  S
C30          C31   1.419       .  A
C30          C35   1.414       .  A
C31         C131   1.511       .  S
C31          C32   1.415       .  A
C32          C33   1.417       .  A
C32          H37   1.084       .  S
C33         C106   1.496       .  S
C33          C34   1.417       .  A
C34         C117   1.504       .  S
C34          C35   1.410       .  A
C35          H36   1.084       .  S
C38          C75   1.487   1_565  S
C38          C39   1.418       .  A
C38          C43   1.407       .  A
C39          C89   1.484       .  S
C39          C40   1.398   1_565  A
C40          C41   1.404       .  A
C40          H45   1.083       .  S
C41          C64   1.483       .  S
C41          C42   1.414       .  A
C42          C50   1.485       .  S
C42          C43   1.400   1_545  A
C43          H44   1.084       .  S
C46          C51   1.411       .  A
C46         C361   1.401       .  A
C46          H53   1.083       .  S
C47         C324   1.487       .  S
C47          C48   1.411       .  A
C47         C360   1.409   1_545  A
C48          C49   1.403       .  A
C48          N55   1.428       .  S
C49          C50   1.405       .  A
C49          H54   1.084       .  S
C50         C365   1.413   1_545  A
C51         C364   1.417       .  A
C51          N52   1.437       .  S
N52          O57   1.263       .  A
N52         O370   1.261       .  A
N55          O58   1.262       .  A
N55         O373   1.262       .  A
O56         N366   1.263       .  A
O59         N369   1.263       .  A
C60          C61   1.405   1_545  A
C60          C65   1.411       .  A
C60          H67   1.084       .  S
C61         C376   1.423       .  A
C62          C63   1.403       .  A
C62         C375   1.414       .  A
C62          N69   1.440       .  S
C63         C378   1.403       .  A
C63          H68   1.084       .  S
C64          C65   1.416       .  A
C64         C377   1.393   1_545  A
C65          N66   1.438       .  S
N66         O385   1.263       .  A
N66          O70   1.261       .  A
N69         O386   1.261       .  A
N69          O73   1.263       .  A
O71         N380   1.262       .  A
O72         N383   1.261       .  A
C74          C79   1.398       .  A
C74         C389   1.398       .  A
C74          H81   1.084       .  S
C75          C76   1.417   1_545  A
C75         C388   1.396       .  A
C76          C77   1.410       .  A
C76          N83   1.437       .  S
C77         C392   1.404   1_565  A
C77          H82   1.084       .  S
C78          C79   1.417       .  A
C78         C391   1.404       .  A
C79          N80   1.433       .  S
N80         O399   1.261       .  A
N80          O84   1.262       .  A
N83         O400   1.263       .  A
N83          O87   1.262       .  A
O85         N394   1.261       .  A
O86         N397   1.263       .  A
C88          C89   1.398   1_545  A
C88          C93   1.394       .  A
C88          H95   1.084       .  S
C89          C90   1.414       .  A
C90          C91   1.405       .  A
C90          N97   1.433       .  S
C91          C92   1.404       .  A
C91          H96   1.083       .  S
C92          C93   1.419   1_565  A
C93          N94   1.430       .  S
N94          O99   1.262       .  A
N94         O412   1.262       .  A
N97         O414   1.262       .  A
N97         O101   1.262       .  A
O98         N408   1.262       .  A
O100        N411   1.262       .  A
C102        C103   1.408       .  A
C102        C107   1.416       .  A
C102        H109   1.083       .  S
C103        C657   1.491       .  S
C103        C732   1.411   1_455  A
C104        C105   1.405       .  A
C104        C731   1.415       .  A
C104        N111   1.432       .  S
C105        C734   1.400       .  A
C105        H110   1.084       .  S
C106        C107   1.417       .  A
C106        C733   1.399   1_455  A
C107        N108   1.437       .  S
N108        O113   1.263       .  A
N108        O112   1.261       .  A
N111        O114   1.262       .  A
N111        O115   1.262       .  A
C116        C117   1.407       .  A
C116        C121   1.412       .  A
C116        H123   1.083       .  S
C117        C746   1.417   1_455  A
C118        C119   1.413       .  A
C118        C745   1.417       .  A
C118        N125   1.442       .  S
C119        C748   1.412       .  A
C119        H124   1.082       .  S
C120        C121   1.414       .  A
C120        C747   1.412   1_455  A
C121        N122   1.428       .  S
N122        O127   1.262       .  A
N122        O126   1.262       .  A
N125        O128   1.262       .  A
N125        O129   1.263       .  A
C130        C135   1.407       .  A
C130        C759   1.400       .  A
C130        H137   1.084       .  S
C131        C132   1.425       .  A
C131        C758   1.399   1_455  A
C132        C133   1.423       .  A
C132        N139   1.441       .  S
C133        C762   1.407       .  A
C133        H138   1.083       .  S
C134        C135   1.419       .  A
C134        C761   1.406       .  A
C135        N136   1.427       .  S
N136        O141   1.261       .  A
N136        O140   1.262       .  A
N139        O142   1.263       .  A
N139        O143   1.262       .  A
C144        C145   1.397       .  A
C144        C149   1.404       .  A
C144        H151   1.083       .  S
C145        C774   1.412   1_455  A
C146        C147   1.411       .  A
C146        C773   1.412       .  A
C146        N153   1.431       .  S
C147        C776   1.408       .  A
C147        H152   1.084       .  S
C148        C149   1.418   1_655  A
C148        C775   1.407       .  A
C149        N150   1.432       .  S
N150        O155   1.261       .  A
N150        O154   1.261       .  A
N153        O156   1.262       .  A
N153        O157   1.261       .  A
O158        C794   1.273       .  A
O158       Co178   1.841       .  S
O159       Co179   1.892   1_565  S
O159        C481   1.242       .  A
O160        C482   1.272       .  A
O160       Co494   2.049   1_455  S
O161        C797   1.294   1_455  A
O161       Co809   2.079       .  S
O162        C168   1.270       .  A
O163        C169   1.266       .  A
O164        C167   1.265       .  A
O164       Co809   2.001       .  S
O165        C166   1.317       .  A
O165       Co494   2.151       .  S
C166        O786   1.273       .  A
C166        C305   1.489       .  S
C167        O473   1.261       .  A
C167        C518   1.491       .  S
C168        O474   1.260   1_545  A
C168        C218   1.473       .  S
C169        O789   1.265       .  A
C169        C291   1.500       .  S
O170        C183   1.249       .  A
O171        C184   1.249       .  A
O172        C185   1.280       .  A
O172       Co808   2.072       .  S
O173        C186   1.265       .  A
O173       Co495   1.987       .  S
O174       Co179   1.996       .  S
O174        C814   1.265       .  A
O175        C499   1.252       .  A
O175       Co178   2.021       .  S
O176        C497   1.264   1_545  A
O176       Co495   1.987       .  S
O177        C812   1.288       .  A
O177       Co808   2.094       .  S
Co178       O182   1.966   1_556  S
Co179       O967   1.940   1_545  S
Co180       O474   1.978       .  S
Co180       O479   1.990       .  S
Co180       O800   2.078   1_455  S
Co180       O805   2.086   1_565  S
Co180      O1124   2.114   1_565  S
Co181       O789   1.990       .  S
Co181       O792   1.964       .  S
Co181       O487   2.086       .  S
Co181       O490   2.074       .  S
O182       Co964   1.959       .  S
O182      Co1122   2.140   1_554  S
C183        O490   1.282       .  A
C183        C235   1.490       .  S
C184        O805   1.286       .  A
C184        C277   1.483       .  S
C185        O489   1.244       .  A
C185        C249   1.474       .  S
C186        O802   1.266       .  A
C186        C888   1.489       .  S
C187        C302   1.498       .  S
C187        C188   1.417       .  A
C187        C192   1.410   1_655  A
C188        C288   1.478       .  S
C188        C189   1.402   1_655  A
C189        C190   1.400       .  A
C189        H194   1.084       .  S
C190        C263   1.478       .  S
C190        C191   1.410       .  A
C191        C274   1.486       .  S
C191        C192   1.406       .  A
C192        H193   1.084   1_455  S
C195        C232   1.483       .  S
C195        C196   1.415       .  A
C195        C200   1.402       .  A
C196        C246   1.487   1_565  S
C196        C197   1.403   1_565  A
C197        C198   1.401   1_545  A
C197        H202   1.084       .  S
C198        C221   1.478   1_565  S
C198        C199   1.413       .  A
C199        C207   1.489       .  S
C199        C200   1.407       .  A
C200        H201   1.084       .  S
C203        C518   1.407       .  A
C203        C208   1.410       .  A
C203        H210   1.083       .  S
C204        C481   1.481       .  S
C204        C517   1.403       .  A
C204        C205   1.419   1_565  A
C205        C206   1.387       .  A
C205        N212   1.432       .  S
C206        C207   1.394   1_545  A
C206        H211   1.085       .  S
C207        C522   1.423       .  A
C208        C521   1.419       .  A
C208        N209   1.441       .  S
N209        O214   1.263       .  A
N209        O527   1.263       .  A
N212        O215   1.260       .  A
N212        O530   1.263       .  A
O213        N523   1.263       .  A
O216        N526   1.262       .  A
C217        C218   1.400       .  A
C217        C222   1.403       .  A
C217        H224   1.078       .  S
C218        C533   1.409   1_545  A
C219        C532   1.413       .  A
C219        C220   1.401       .  A
C219        N226   1.431       .  S
C220        C535   1.405       .  A
C220        H225   1.084       .  S
C221        C534   1.400   1_545  A
C221        C222   1.415       .  A
C222        N223   1.440       .  S
N223        O542   1.262       .  A
N223        O227   1.263       .  A
N226        O543   1.261       .  A
N226        O230   1.262       .  A
O228        N537   1.263       .  A
O229        N540   1.261       .  A
C231        C546   1.404       .  A
C231        C236   1.405       .  A
C231        H238   1.084       .  S
C232        C545   1.403   1_565  A
C232        C233   1.412       .  A
C233        C234   1.401       .  A
C233        N240   1.434       .  S
C234        C549   1.400       .  A
C234        H239   1.083       .  S
C235        C548   1.404       .  A
C235        C236   1.419       .  A
C236        N237   1.436       .  S
N237        O556   1.262       .  A
N237        O241   1.263       .  A
N240        O557   1.262       .  A
N240        O244   1.262       .  A
O242        N551   1.261       .  A
O243        N554   1.263       .  A
C245        C246   1.408       .  A
C245        C250   1.410       .  A
C245        H252   1.083       .  S
C246        C247   1.406   1_545  A
C247        C248   1.392       .  A
C247        N254   1.431       .  S
C248        C249   1.407   1_565  A
C248        H253   1.085       .  S
C249        C250   1.410       .  A
C250        N251   1.435       .  S
N251        O256   1.262       .  A
N251        O569   1.262       .  A
N254        O571   1.261       .  A
N254        O258   1.262       .  A
O255        N565   1.262       .  A
O257        N568   1.262       .  A
C259        C260   1.407       .  A
C259        C264   1.407       .  A
C259        H266   1.081       .  S
C260        C814   1.486       .  S
C260        C889   1.415   1_455  A
C261        C888   1.415       .  A
C261        C262   1.396       .  A
C261        N268   1.429       .  S
C262        C891   1.397       .  A
C262        H267   1.084       .  S
C263        C890   1.397   1_455  A
C263        C264   1.413       .  A
C264        N265   1.440       .  S
N265        O270   1.263       .  A
N265        O269   1.263       .  A
N268        O271   1.262       .  A
N268        O272   1.262       .  A
C273        C274   1.396       .  A
C273        C278   1.404       .  A
C273        H280   1.084       .  S
C274        C903   1.412   1_455  A
C275        C902   1.414       .  A
C275        C276   1.413       .  A
C275        N282   1.435       .  S
C276        C905   1.406       .  A
C276        H281   1.082       .  S
C277        C904   1.403   1_455  A
C277        C278   1.422       .  A
C278        N279   1.435       .  S
N279        O284   1.261       .  A
N279        O283   1.263       .  A
N282        O285   1.262       .  A
N282        O286   1.261       .  A
C287        C916   1.404       .  A
C287        C292   1.410       .  A
C287        H294   1.084       .  S
C288        C915   1.399       .  A
C288        C289   1.404   1_655  A
C289        C290   1.398       .  A
C289        N296   1.429       .  S
C290        C919   1.406   1_455  A
C290        H295   1.081       .  S
C291        C918   1.410       .  A
C291        C292   1.420       .  A
C292        N293   1.433       .  S
N293        O298   1.262       .  A
N293        O297   1.262       .  A
N296        O299   1.262       .  A
N296        O300   1.262       .  A
C301        C302   1.407   1_455  A
C301        C306   1.406       .  A
C301        H308   1.082       .  S
C302        C931   1.411       .  A
C303        C930   1.412       .  A
C303        C304   1.403       .  A
C303        N310   1.435       .  S
C304        C933   1.407       .  A
C304        H309   1.084       .  S
C305        C932   1.407       .  A
C305        C306   1.413   1_655  A
C306        N307   1.430       .  S
N307        O312   1.262       .  A
N307        O311   1.261       .  A
N310        O313   1.263       .  A
N310        O314   1.262       .  A
O315       Co335   1.922       .  S
O315        C951   1.250       .  A
O316       Co336   1.888       .  S
O318        C954   1.264   1_455  A
O318       Co966   1.984       .  S
O319       Co493   1.957       .  S
O319        C325   1.254       .  A
O320       Co492   2.026   1_554  S
O320        C326   1.273       .  A
O321        C324   1.265   1_565  A
O321       Co966   1.973       .  S
O322        C323   1.284       .  A
C323        O943   1.249       .  A
C323        C462   1.486       .  S
C325        C375   1.463       .  S
C326        O946   1.265       .  A
C326        C448   1.503       .  S
O327       Co492   1.890   1_544  S
O327        C340   1.242       .  A
O328       Co493   1.923       .  S
O328        C341   1.256       .  A
O329        C342   1.279       .  A
O329       Co965   2.068       .  S
O330        C343   1.268       .  A
O331       Co336   2.002       .  S
O331        C971   1.270       .  A
O332       Co335   2.014       .  S
O334        C969   1.288       .  A
O334       Co965   2.090       .  S
Co335       O477   1.931       .  S
Co335       O484   2.003       .  S
Co335       O339   1.959       .  S
Co336       O476   1.924   1_554  S
Co336       O485   2.007   1_554  S
Co336       O810   1.971   1_455  S
Co337       O957   2.012   1_455  S
Co337       O962   2.061   1_455  S
Co337       O653   2.090   1_455  S
Co338       O946   1.984   1_545  S
Co338       O949   1.966   1_545  S
Co338       O496   2.109   1_554  S
O339       Co807   1.935   1_565  S
O339       Co651   2.119   1_565  S
O339       Co495   2.118   1_565  S
C340        C392   1.476       .  S
C341        O962   1.284   1_455  A
C341        C434   1.493       .  S
C342        C406   1.469       .  S
C343        O959   1.272       .  A
C343       C1045   1.490       .  S
C344        C459   1.493       .  S
C344        C345   1.413       .  A
C344        C349   1.411       .  A
C345        C445   1.486       .  S
C345        C346   1.405       .  A
C346        C347   1.406       .  A
C346        H351   1.084       .  S
C347        C420   1.486   1_655  S
C347        C348   1.415       .  A
C348        C431   1.495       .  S
C348        C349   1.411       .  A
C349        H350   1.085       .  S
C352        C389   1.482       .  S
C352        C353   1.412       .  A
C352        C357   1.401       .  A
C353        C403   1.478       .  S
C353        C354   1.399       .  A
C354        C355   1.397       .  A
C354        H359   1.084       .  S
C355        C378   1.480       .  S
C355        C356   1.416       .  A
C356        C364   1.483       .  S
C356        C357   1.405       .  A
C357        H358   1.084       .  S
C360        C365   1.401       .  A
C360        H367   1.083       .  S
C361        C362   1.420       .  A
C362        C363   1.391       .  A
C362        N369   1.436       .  S
C363        C364   1.394       .  A
C363        H368   1.085       .  S
C365        N366   1.442       .  S
N366        O371   1.263       .  A
N369        O372   1.261       .  A
C374        C375   1.398       .  A
C374        C379   1.400       .  A
C374        H381   1.082       .  S
C376        C377   1.390       .  A
C376        N383   1.434       .  S
C377        H382   1.085       .  S
C378        C379   1.415       .  A
C379        N380   1.442       .  S
N380        O384   1.263       .  A
N383        O387   1.262       .  A
C388        C393   1.392       .  A
C388        H395   1.084       .  S
C389        C390   1.414       .  A
C390        C391   1.408       .  A
C390        N397   1.439       .  S
C391        H396   1.082       .  S
C392        C393   1.418       .  A
C393        N394   1.432       .  S
N394        O398   1.263       .  A
N397        O401   1.262       .  A
C402        C403   1.407       .  A
C402        C407   1.404       .  A
C402        H409   1.084       .  S
C403        C404   1.408       .  A
C404        C405   1.396       .  A
C404        N411   1.436       .  S
C405        C406   1.407       .  A
C405        H410   1.085       .  S
C406        C407   1.403       .  A
C407        N408   1.428       .  S
N408        O413   1.262       .  A
N411        O415   1.262       .  A
C416        C417   1.405       .  A
C416        C421   1.406       .  A
C416        H423   1.082       .  S
C417        C971   1.486       .  S
C417       C1046   1.416   1_455  A
C418       C1045   1.418       .  A
C418        C419   1.404       .  A
C418        N425   1.434       .  S
C419       C1048   1.399       .  A
C419        H424   1.084       .  S
C420       C1047   1.400   1_455  A
C420        C421   1.416       .  A
C421        N422   1.440       .  S
N422        O427   1.262       .  A
N422        O426   1.263       .  A
N425        O428   1.262       .  A
N425        O429   1.262       .  A
C430        C431   1.399   1_455  A
C430        C435   1.401       .  A
C430        H437   1.072       .  S
C431       C1060   1.420       .  A
C432       C1059   1.422       .  A
C432        C433   1.418       .  A
C432        N439   1.441       .  S
C433       C1062   1.404       .  A
C433        H438   1.082       .  S
C434       C1061   1.405   1_455  A
C434        C435   1.418       .  A
C435        N436   1.430       .  S
N436        O441   1.262       .  A
N436        O440   1.261       .  A
N439        O442   1.262       .  A
N439        O443   1.262       .  A
C444       C1073   1.404       .  A
C444        C449   1.408       .  A
C444        H451   1.084       .  S
C445       C1072   1.402       .  A
C445        C446   1.413   1_655  A
C446        C447   1.406       .  A
C446        N453   1.441       .  S
C447       C1076   1.410   1_455  A
C447        H452   1.083       .  S
C448       C1075   1.411       .  A
C448        C449   1.415       .  A
C449        N450   1.430       .  S
N450        O455   1.262       .  A
N450        O454   1.262       .  A
N453        O456   1.262       .  A
N453        O457   1.263       .  A
C458        C459   1.399   1_455  A
C458        C463   1.406       .  A
C458        H465   1.084       .  S
C459       C1088   1.414       .  A
C460       C1087   1.415       .  A
C460        C461   1.414       .  A
C460        N467   1.437       .  S
C461       C1090   1.407       .  A
C461        H466   1.083       .  S
C462       C1089   1.407       .  A
C462        C463   1.412   1_655  A
C463        N464   1.431       .  S
N464        O469   1.262       .  A
N464        O468   1.262       .  A
N467        O470   1.262       .  A
N467        O471   1.261       .  A
O472       Co492   2.016       .  S
O472       C1108   1.271       .  A
O473       Co493   1.984       .  S
O475       C1111   1.286       .  A
O475      Co1123   2.085   1_565  S
O476        C482   1.242       .  A
O477        C483   1.253       .  A
O478        C481   1.284       .  A
O478      Co1123   2.087   1_465  S
O479        C480   1.267   1_455  A
C480       O1100   1.269       .  A
C480        C619   1.491       .  S
C482        C532   1.481       .  S
C483       O1103   1.287       .  A
C483        C605   1.500       .  S
O484        C497   1.270       .  A
O485        C498   1.264       .  A
O486        C499   1.235       .  A
O486      Co1122   1.939       .  S
O487        C500   1.285       .  A
O488       Co493   1.904       .  S
O488       C1128   1.247       .  A
O489       Co492   1.910   1_545  S
O491       C1126   1.263       .  A
O491      Co1122   1.998       .  S
Co492       O496   1.935   1_565  S
Co493       O653   1.983   1_455  S
Co494      O1114   1.932       .  S
Co494      O1119   1.995       .  S
Co494       O810   2.142   1_556  S
Co495      O1103   2.091   1_545  S
Co495      O1106   2.085       .  S
O496       Co650   1.960   1_556  S
O496       Co808   2.114       .  S
C497        C549   1.474       .  S
C498       O1119   1.262   1_455  A
C498        C591   1.500       .  S
C499        C563   1.488       .  S
C500       O1116   1.247       .  A
C500       C1202   1.486       .  S
C501        C616   1.484       .  S
C501        C502   1.416       .  A
C501        C506   1.409       .  A
C502        C602   1.506       .  S
C502        C503   1.412       .  A
C503        C504   1.417       .  A
C503        H508   1.084       .  S
C504        C577   1.497       .  S
C504        C505   1.417       .  A
C505        C588   1.496   1_655  S
C505        C506   1.406       .  A
C506        H507   1.084       .  S
C509        C546   1.505       .  S
C509        C510   1.421       .  A
C509        C514   1.411       .  A
C510        C560   1.486       .  S
C510        C511   1.403       .  A
C511        C512   1.404       .  A
C511        H516   1.083       .  S
C512        C535   1.496       .  S
C512        C513   1.421       .  A
C513        C521   1.496       .  S
C513        C514   1.411       .  A
C514        H515   1.084       .  S
C517        C522   1.417       .  A
C517        H524   1.083       .  S
C518        C519   1.414       .  A
C519        C520   1.401       .  A
C519        N526   1.430       .  S
C520        C521   1.404       .  A
C520        H525   1.084       .  S
C522        N523   1.441       .  S
N523        O528   1.263       .  A
N526        O529   1.262       .  A
C531        C532   1.403       .  A
C531        C536   1.408       .  A
C531        H538   1.083       .  S
C533        C534   1.398       .  A
C533        N540   1.428       .  S
C534        H539   1.083       .  S
C535        C536   1.418       .  A
C536        N537   1.439       .  S
N537        O541   1.262       .  A
N540        O544   1.259   1_556  A
C545        C550   1.402       .  A
C545        H552   1.084       .  S
C546        C547   1.420       .  A
C547        C548   1.412       .  A
C547        N554   1.436       .  S
C548        H553   1.084       .  S
C549        C550   1.409   1_565  A
C550        N551   1.428       .  S
N551        O555   1.260       .  A
N554        O558   1.263       .  A
C559        C560   1.400       .  A
C559        C564   1.402       .  A
C559        H566   1.084       .  S
C560        C561   1.412       .  A
C561        C562   1.401       .  A
C561        N568   1.431       .  S
C562        C563   1.406       .  A
C562        H567   1.084       .  S
C563        C564   1.420       .  A
C564        N565   1.435       .  S
N565        O570   1.262       .  A
N568        O572   1.262       .  A
C573        C574   1.407       .  A
C573        C578   1.403       .  A
C573        H580   1.085       .  S
C574       C1128   1.481       .  S
C574       C1203   1.407   1_455  A
C575       C1202   1.408       .  A
C575        C576   1.411       .  A
C575        N582   1.434       .  S
C576       C1205   1.410       .  A
C576        H581   1.084       .  S
C577       C1204   1.410       .  A
C577        C578   1.411   1_655  A
C578        N579   1.436       .  S
N579        O584   1.263       .  A
N579        O583   1.262       .  A
N582        O585   1.262       .  A
N582        O586   1.262       .  A
C587        C588   1.406       .  A
C587        C592   1.408       .  A
C587        H594   1.084       .  S
C588       C1217   1.413   1_455  A
C589       C1216   1.412       .  A
C589        C590   1.406       .  A
C589        N596   1.436       .  S
C590       C1219   1.410       .  A
C590        H595   1.083       .  S
C591       C1218   1.409   1_455  A
C591        C592   1.412       .  A
C592        N593   1.426       .  S
N593        O598   1.261       .  A
N593        O597   1.260       .  A
N596        O599   1.262       .  A
N596        O600   1.263       .  A
C601       C1230   1.401       .  A
C601        C606   1.410       .  A
C601        H608   1.084       .  S
C602       C1229   1.401       .  A
C602        C603   1.423   1_655  A
C603        C604   1.417       .  A
C603        N610   1.440       .  S
C604       C1233   1.403   1_455  A
C604        H609   1.083       .  S
C605       C1232   1.404       .  A
C605        C606   1.423       .  A
C606        N607   1.436       .  S
N607        O612   1.263       .  A
N607        O611   1.262       .  A
N610        O613   1.262       .  A
N610        O614   1.262       .  A
C615        C616   1.396   1_455  A
C615        C620   1.397       .  A
C615        H622   1.084       .  S
C616       C1245   1.416       .  A
C617       C1244   1.416       .  A
C617        C618   1.413       .  A
C617        N624   1.440       .  S
C618       C1247   1.408       .  A
C618        H623   1.084       .  S
C619       C1246   1.408       .  A
C619        C620   1.415   1_655  A
C620        N621   1.427       .  S
N621        O626   1.261       .  A
N621        O625   1.261       .  A
N624        O627   1.263       .  A
N624        O628   1.261       .  A
O629       Co649   2.010       .  S
O630       Co650   2.008       .  S
O630        C952   1.270       .  A
O631        C953   1.257       .  A
O631       Co965   1.975       .  S
O633       Co807   1.882       .  S
O633        C639   1.239       .  A
O634        C640   1.266       .  A
O634       Co806   1.980   1_454  S
O635        C638   1.279       .  A
O636        C637   1.261       .  A
O636       Co965   1.971       .  S
C637        C776   1.498       .  S
C638        O944   1.239       .  A
C638        C989   1.476       .  S
C639        O945   1.282       .  A
C639        C689   1.475       .  S
C640        C762   1.508       .  S
O641        C654   1.277       .  A
O641       Co806   2.039   1_554  S
O642       Co807   2.024       .  S
O642        C655   1.271       .  A
O643        C656   1.259   1_545  A
O644        C657   1.284       .  A
O644       Co966   2.086   1_545  S
O645       Co650   1.920       .  S
O646        C970   1.284       .  A
O646       Co649   2.006       .  S
O647        C968   1.284   1_565  A
O647       Co966   2.077   1_655  S
Co649       O791   1.908       .  S
Co649       O798   1.971       .  S
Co649       O653   1.939       .  S
Co650       O790   2.010   1_554  S
Co650       O799   1.917   1_554  S
Co651       O945   2.078       .  S
Co651       O950   2.086   1_545  S
Co652       O958   1.986       .  S
Co652       O961   1.962       .  S
Co652       O810   2.103       .  S
O653       Co809   2.180   1_655  S
C654        O961   1.258       .  A
C654        C706   1.486       .  S
C655        C748   1.511       .  S
C656        O960   1.272       .  A
C656        C720   1.483       .  S
C658        C773   1.492       .  S
C658        C659   1.421       .  A
C658        C663   1.415       .  A
C659        C759   1.513       .  S
C659        C660   1.416       .  A
C660        C661   1.417       .  A
C660        H665   1.084       .  S
C661        C734   1.496       .  S
C661        C662   1.417       .  A
C662        C745   1.505       .  S
C662        C663   1.410       .  A
C663        H664   1.084       .  S
C666        C703   1.488       .  S
C666        C667   1.419       .  A
C666        C671   1.408       .  A
C667        C717   1.484       .  S
C667        C668   1.397       .  A
C668        C669   1.404       .  A
C668        H673   1.083       .  S
C669        C692   1.482       .  S
C669        C670   1.413       .  A
C670        C678   1.482       .  S
C670        C671   1.397       .  A
C671        H672   1.085       .  S
C674        C989   1.400       .  A
C674        C679   1.411       .  A
C674        H681   1.083       .  S
C675        C952   1.485       .  S
C675        C988   1.409   1_545  A
C675        C676   1.410       .  A
C676        C677   1.404       .  A
C676        N683   1.429       .  S
C677        C678   1.406       .  A
C677        H682   1.084       .  S
C678        C993   1.411   1_545  A
C679        C992   1.420       .  A
C679        N680   1.439       .  S
N680        O685   1.263       .  A
N680        O998   1.262       .  A
N683        O686   1.262       .  A
N683       O1001   1.262       .  A
O684        N994   1.263       .  A
O687        N997   1.263       .  A
C688        C689   1.405       .  A
C688        C693   1.410       .  A
C688        H695   1.084       .  S
C689       C1004   1.421   1_545  A
C690       C1003   1.418       .  A
C690        C691   1.400       .  A
C690        N697   1.440       .  S
C691       C1006   1.400       .  A
C691        H696   1.084       .  S
C692       C1005   1.394   1_545  A
C692        C693   1.416       .  A
C693        N694   1.438       .  S
N694       O1013   1.263       .  A
N694        O698   1.261       .  A
N697       O1014   1.260       .  A
N697        O701   1.263       .  A
O699       N1008   1.263       .  A
O700       N1011   1.261       .  A
C702       C1017   1.401       .  A
C702        C707   1.402       .  A
C702        H709   1.085       .  S
C703       C1016   1.396       .  A
C703        C704   1.419   1_545  A
C704        C705   1.411       .  A
C704        N711   1.439       .  S
C705       C1020   1.404   1_565  A
C705        H710   1.084       .  S
C706       C1019   1.405       .  A
C706        C707   1.419       .  A
C707        N708   1.436       .  S
N708       O1027   1.261       .  A
N708        O712   1.262       .  A
N711       O1028   1.263       .  A
N711        O715   1.262       .  A
O713       N1022   1.260       .  A
O714       N1025   1.262       .  A
C716        C717   1.397       .  A
C716        C721   1.395       .  A
C716        H723   1.084       .  S
C717        C718   1.413   1_545  A
C718        C719   1.405       .  A
C718        N725   1.431       .  S
C719        C720   1.404       .  A
C719        H724   1.083       .  S
C720        C721   1.420   1_565  A
C721        N722   1.431       .  S
N722        O727   1.262       .  A
N722       O1040   1.262       .  A
N725       O1042   1.262       .  A
N725        O729   1.262       .  A
O726       N1036   1.262       .  A
O728       N1039   1.262       .  A
C730        C731   1.408       .  A
C730        C735   1.414       .  A
C730        H737   1.083       .  S
C732        C733   1.402       .  A
C732        N739   1.424       .  S
C733        H738   1.084       .  S
C734        C735   1.415       .  A
C735        N736   1.436       .  S
N736        O741   1.263       .  A
N736        O740   1.261       .  A
N739        O742   1.262       .  A
N739        O743   1.262       .  A
C744        C745   1.406       .  A
C744        C749   1.412       .  A
C744        H751   1.084       .  S
C746        C747   1.412       .  A
C746        N753   1.442       .  S
C747        H752   1.081       .  S
C748        C749   1.417       .  A
C749        N750   1.429       .  S
N750        O755   1.262       .  A
N750        O754   1.262       .  A
N753        O756   1.262       .  A
N753        O757   1.263       .  A
C758        C763   1.407       .  A
C758        H765   1.084       .  S
C759        C760   1.425       .  A
C760        C761   1.423       .  A
C760        N767   1.441       .  S
C761        H766   1.083       .  S
C762        C763   1.419   1_455  A
C763        N764   1.426       .  S
N764        O769   1.261       .  A
N764        O768   1.261       .  A
N767        O770   1.263       .  A
N767        O771   1.262       .  A
C772        C773   1.396       .  A
C772        C777   1.405       .  A
C772        H779   1.084       .  S
C774        C775   1.410       .  A
C774        N781   1.431       .  S
C775        H780   1.084       .  S
C776        C777   1.426       .  A
C777        N778   1.436       .  S
N778        O783   1.263       .  A
N778        O782   1.261       .  A
N781        O784   1.262       .  A
N781        O785   1.262       .  A
O786       Co806   1.844       .  S
O787       Co807   1.894   1_565  S
O787       C1109   1.242       .  A
O788       C1110   1.274       .  A
O788      Co1122   2.056       .  S
O790        C796   1.270       .  A
O791        C797   1.263       .  A
O792        C795   1.259       .  A
O793        C794   1.318       .  A
O793      Co1122   2.152       .  S
C794        C933   1.483       .  S
C795       O1101   1.270       .  A
C795       C1146   1.487       .  S
C796       O1102   1.260   1_545  A
C796        C846   1.478       .  S
C797        C919   1.481       .  S
O798        C811   1.269       .  A
O799        C812   1.250       .  A
O800        C813   1.281   1_565  A
O801        C814   1.264   1_655  A
O801      Co1123   1.984       .  S
O802       Co807   1.998       .  S
O803       C1127   1.251       .  A
O803       Co806   2.021       .  S
O804       C1125   1.263   1_545  A
O804      Co1123   1.986       .  S
Co806       O810   1.975   1_556  S
Co808      O1102   1.978   1_545  S
Co808      O1107   1.989   1_545  S
Co809      O1115   2.079       .  S
Co809      O1118   2.052   1_455  S
C811       O1118   1.274       .  A
C811        C863   1.489       .  S
C812        C905   1.492       .  S
C813       O1117   1.244       .  A
C813        C877   1.477       .  S
C815        C930   1.493       .  S
C815        C816   1.417       .  A
C815        C820   1.414       .  A
C816        C916   1.491       .  S
C816        C817   1.405       .  A
C817        C818   1.406       .  A
C817        H822   1.084       .  S
C818        C891   1.479       .  S
C818        C819   1.411       .  A
C819        C902   1.496       .  S
C819        C820   1.407       .  A
C820        H821   1.084       .  S
C823        C860   1.487       .  S
C823        C824   1.417   1_565  A
C823        C828   1.403       .  A
C824        C874   1.487       .  S
C824        C825   1.404       .  A
C825        C826   1.401       .  A
C825        H830   1.084       .  S
C826        C849   1.480       .  S
C826        C827   1.412   1_545  A
C827        C835   1.486       .  S
C827        C828   1.406       .  A
C828        H829   1.084       .  S
C831       C1146   1.411       .  A
C831        C836   1.403       .  A
C831        H838   1.083       .  S
C832       C1109   1.478       .  S
C832       C1145   1.402       .  A
C832        C833   1.417   1_565  A
C833        C834   1.388       .  A
C833        N840   1.431       .  S
C834        C835   1.393   1_545  A
C834        H839   1.085       .  S
C835       C1150   1.423       .  A
C836       C1149   1.414       .  A
C836        N837   1.443       .  S
N837        O842   1.263       .  A
N837       O1155   1.263       .  A
N840        O843   1.260       .  A
N840       O1158   1.262       .  A
O841       N1151   1.263       .  A
O844       N1154   1.262       .  A
C845        C846   1.403       .  A
C845        C850   1.404       .  A
C845        H852   1.066       .  S
C846       C1161   1.417   1_545  A
C847       C1160   1.414       .  A
C847        C848   1.404       .  A
C847        N854   1.431       .  S
C848       C1163   1.406       .  A
C848        H853   1.084       .  S
C849       C1162   1.399   1_545  A
C849        C850   1.414       .  A
C850        N851   1.440       .  S
N851       O1170   1.262       .  A
N851        O855   1.263       .  A
N854       O1171   1.262       .  A
N854        O858   1.262       .  A
O856       N1165   1.263       .  A
O857       N1168   1.263       .  A
C859       C1174   1.410       .  A
C859        C864   1.412       .  A
C859        H866   1.084       .  S
C860       C1173   1.404   1_565  A
C860        C861   1.413       .  A
C861        C862   1.402       .  A
C861        N868   1.435       .  S
C862       C1177   1.400       .  A
C862        H867   1.083       .  S
C863       C1176   1.406       .  A
C863        C864   1.413       .  A
C864        N865   1.435       .  S
N865       O1184   1.262       .  A
N865        O869   1.262       .  A
N868       O1185   1.262       .  A
N868        O872   1.262       .  A
O870       N1179   1.261       .  A
O871       N1182   1.262       .  A
C873        C874   1.407       .  A
C873        C878   1.410       .  A
C873        H880   1.083       .  S
C874        C875   1.407   1_545  A
C875        C876   1.394       .  A
C875        N882   1.431       .  S
C876        C877   1.407   1_565  A
C876        H881   1.085       .  S
C877        C878   1.409       .  A
C878        N879   1.432       .  S
N879        O884   1.261       .  A
N879       O1197   1.262       .  A
N882       O1199   1.261       .  A
N882        O886   1.262       .  A
O883       N1193   1.262       .  A
O885       N1196   1.261       .  A
C887        C888   1.406       .  A
C887        C892   1.408       .  A
C887        H894   1.079       .  S
C889        C890   1.396       .  A
C889        N896   1.430       .  S
C890        H895   1.084       .  S
C891        C892   1.415       .  A
C892        N893   1.441       .  S
N893        O898   1.262       .  A
N893        O897   1.263       .  A
N896        O899   1.262       .  A
N896        O900   1.262       .  A
C901        C902   1.398       .  A
C901        C906   1.407       .  A
C901        H908   1.084       .  S
C903        C904   1.408       .  A
C903        N910   1.435       .  S
C904        H909   1.081       .  S
C905        C906   1.422       .  A
C906        N907   1.435       .  S
N907        O912   1.261       .  A
N907        O911   1.263       .  A
N910        O913   1.261       .  A
N910        O914   1.260       .  A
C915        C920   1.401       .  A
C915        H922   1.084       .  S
C916        C917   1.409       .  A
C917        C918   1.402       .  A
C917        N924   1.435       .  S
C918        H923   1.081       .  S
C919        C920   1.418       .  A
C920        N921   1.434       .  S
N921        O926   1.262       .  A
N921        O925   1.262       .  A
N924        O927   1.262       .  A
N924        O928   1.262       .  A
C929        C930   1.406       .  A
C929        C934   1.404       .  A
C929        H936   1.081       .  S
C931        C932   1.402       .  A
C931        N938   1.433       .  S
C932        H937   1.084       .  S
C933        C934   1.410       .  A
C934        N935   1.431       .  S
N935        O940   1.262       .  A
N935        O939   1.261       .  A
N938        O941   1.262       .  A
N938        O942   1.262       .  A
O943       Co963   1.918       .  S
O944       Co964   1.887       .  S
O947      Co1121   1.997       .  S
O947        C953   1.263       .  A
O948      Co1120   2.014   1_554  S
O948        C954   1.270       .  A
O949        C952   1.263   1_565  A
O950        C951   1.284       .  A
C951       C1090   1.489       .  S
C953       C1003   1.473       .  S
C954       C1076   1.497       .  S
O955      Co1120   1.873   1_544  S
O955        C968   1.243       .  A
O956      Co1121   1.920       .  S
O956        C969   1.251       .  A
O957        C970   1.273       .  A
O958        C971   1.267   1_655  A
O959       Co964   2.005       .  S
O960       Co963   2.015       .  S
Co963      O1105   1.926       .  S
Co963      O1112   1.999       .  S
Co963       O967   1.969   1_655  S
Co964      O1104   1.922   1_554  S
Co964      O1113   2.002   1_554  S
Co966      O1124   2.109   1_564  S
O967      Co1123   2.117   1_465  S
C968       C1020   1.474       .  S
C969       C1062   1.495       .  S
C970       C1034   1.481       .  S
C972       C1087   1.495       .  S
C972        C973   1.415       .  A
C972        C977   1.415       .  A
C973       C1073   1.493       .  S
C973        C974   1.407       .  A
C974        C975   1.408       .  A
C974        H979   1.084       .  S
C975       C1048   1.485       .  S
C975        C976   1.415       .  A
C976       C1059   1.503       .  S
C976        C977   1.414       .  A
C977        H978   1.084       .  S
C980       C1017   1.492       .  S
C980        C981   1.419       .  A
C980        C985   1.406       .  A
C981       C1031   1.483       .  S
C981        C982   1.401       .  A
C982        C983   1.395       .  A
C982        H987   1.085       .  S
C983       C1006   1.485       .  S
C983        C984   1.414       .  A
C984        C992   1.484       .  S
C984        C985   1.409       .  A
C985        H986   1.084       .  S
C988        C993   1.399       .  A
C988        H995   1.083       .  S
C989        C990   1.421       .  A
C990        C991   1.392       .  A
C990        N997   1.437       .  S
C991        C992   1.395       .  A
C991        H996   1.085       .  S
C993        N994   1.442       .  S
N994        O999   1.263       .  A
N997       O1000   1.261       .  A
C1002      C1003   1.402       .  A
C1002      C1007   1.405       .  A
C1002      H1009   1.082       .  S
C1004      C1005   1.388       .  A
C1004      N1011   1.434       .  S
C1005      H1010   1.085       .  S
C1006      C1007   1.416       .  A
C1007      N1008   1.441       .  S
N1008      O1012   1.263       .  A
N1011      O1015   1.262       .  A
C1016      C1021   1.389       .  A
C1016      H1023   1.084       .  S
C1017      C1018   1.414       .  A
C1018      C1019   1.410       .  A
C1018      N1025   1.437       .  S
C1019      H1024   1.082       .  S
C1020      C1021   1.421       .  A
C1021      N1022   1.437       .  S
N1022      O1026   1.263       .  A
N1025      O1029   1.263       .  A
C1030      C1031   1.401       .  A
C1030      C1035   1.399       .  A
C1030      H1037   1.083       .  S
C1031      C1032   1.415       .  A
C1032      C1033   1.400       .  A
C1032      N1039   1.437       .  S
C1033      C1034   1.405       .  A
C1033      H1038   1.084       .  S
C1034      C1035   1.414       .  A
C1035      N1036   1.429       .  S
N1036      O1041   1.261       .  A
N1039      O1043   1.262       .  A
C1044      C1045   1.406       .  A
C1044      C1049   1.405       .  A
C1044      H1051   1.082       .  S
C1046      C1047   1.404       .  A
C1046      N1053   1.436       .  S
C1047      H1052   1.084       .  S
C1048      C1049   1.411       .  A
C1049      N1050   1.434       .  S
N1050      O1055   1.262       .  A
N1050      O1054   1.262       .  A
N1053      O1056   1.262       .  A
N1053      O1057   1.262       .  A
C1058      C1059   1.400       .  A
C1058      C1063   1.407       .  A
C1058      H1065   1.084       .  S
C1060      C1061   1.418       .  A
C1060      N1067   1.441       .  S
C1061      H1066   1.052       .  S
C1062      C1063   1.420       .  A
C1063      N1064   1.433       .  S
N1064      O1069   1.262       .  A
N1064      O1068   1.262       .  A
N1067      O1070   1.263       .  A
N1067      O1071   1.262       .  A
C1072      C1077   1.405       .  A
C1072      H1079   1.084       .  S
C1073      C1074   1.414       .  A
C1074      C1075   1.408       .  A
C1074      N1081   1.442       .  S
C1075      H1080   1.083       .  S
C1076      C1077   1.415       .  A
C1077      N1078   1.429       .  S
N1078      O1083   1.262       .  A
N1078      O1082   1.262       .  A
N1081      O1084   1.262       .  A
N1081      O1085   1.263       .  A
C1086      C1087   1.400       .  A
C1086      C1091   1.407       .  A
C1086      H1093   1.084       .  S
C1088      C1089   1.412       .  A
C1088      N1095   1.437       .  S
C1089      H1094   1.084       .  S
C1090      C1091   1.413       .  A
C1091      N1092   1.431       .  S
N1092      O1097   1.262       .  A
N1092      O1096   1.262       .  A
N1095      O1098   1.263       .  A
N1095      O1099   1.262       .  A
O1100     Co1120   2.010       .  S
O1101     Co1121   2.015       .  S
O1104      C1110   1.241       .  A
O1105      C1111   1.252       .  A
O1106      C1109   1.284   1_545  A
O1107      C1108   1.266       .  A
C1108      C1247   1.493       .  S
C1110      C1160   1.483       .  S
C1111      C1233   1.496       .  S
O1112      C1125   1.268       .  A
O1113      C1126   1.263       .  A
O1114      C1127   1.232       .  A
O1115      C1128   1.283       .  A
O1116     Co1121   1.905       .  S
O1117     Co1120   1.910   1_545  S
Co1120     O1124   1.937   1_665  S
C1125      C1177   1.474       .  S
C1126      C1219   1.500       .  S
C1127      C1191   1.487       .  S
C1129      C1244   1.488       .  S
C1129      C1130   1.417       .  A
C1129      C1134   1.410       .  A
C1130      C1230   1.509       .  S
C1130      C1131   1.416       .  A
C1131      C1132   1.419       .  A
C1131      H1136   1.084       .  S
C1132      C1205   1.502       .  S
C1132      C1133   1.417       .  A
C1133      C1216   1.497       .  S
C1133      C1134   1.407       .  A
C1134      H1135   1.084       .  S
C1137      C1174   1.505       .  S
C1137      C1138   1.425       .  A
C1137      C1142   1.404       .  A
C1138      C1188   1.487       .  S
C1138      C1139   1.408       .  A
C1139      C1140   1.406       .  A
C1139      H1144   1.084       .  S
C1140      C1163   1.502       .  S
C1140      C1141   1.421       .  A
C1141      C1149   1.487       .  S
C1141      C1142   1.405       .  A
C1142      H1143   1.084       .  S
C1145      C1150   1.416       .  A
C1145      H1152   1.083       .  S
C1146      C1147   1.407       .  A
C1147      C1148   1.400       .  A
C1147      N1154   1.428       .  S
C1148      C1149   1.407       .  A
C1148      H1153   1.084       .  S
C1150      N1151   1.441       .  S
N1151      O1156   1.263       .  A
N1154      O1157   1.262       .  A
C1159      C1160   1.402       .  A
C1159      C1164   1.408       .  A
C1159      H1166   1.084       .  S
C1161      C1162   1.402       .  A
C1161      N1168   1.436       .  S
C1162      H1167   1.079       .  S
C1163      C1164   1.420       .  A
C1164      N1165   1.439       .  S
N1165      O1169   1.263       .  A
N1168      O1172   1.259       .  A
C1173      C1178   1.404       .  A
C1173      H1180   1.084       .  S
C1174      C1175   1.413       .  A
C1175      C1176   1.405       .  A
C1175      N1182   1.432       .  S
C1176      H1181   1.084       .  S
C1177      C1178   1.413   1_565  A
C1178      N1179   1.433       .  S
N1179      O1183   1.262       .  A
N1182      O1186   1.263       .  A
C1187      C1188   1.400       .  A
C1187      C1192   1.401       .  A
C1187      H1194   1.084       .  S
C1188      C1189   1.414       .  A
C1189      C1190   1.402       .  A
C1189      N1196   1.431       .  S
C1190      C1191   1.405       .  A
C1190      H1195   1.084       .  S
C1191      C1192   1.420       .  A
C1192      N1193   1.436       .  S
N1193      O1198   1.263       .  A
N1196      O1200   1.262       .  A
C1201      C1202   1.409       .  A
C1201      C1206   1.407       .  A
C1201      H1208   1.086       .  S
C1203      C1204   1.409       .  A
C1203      N1210   1.433       .  S
C1204      H1209   1.083       .  S
C1205      C1206   1.412       .  A
C1206      N1207   1.436       .  S
N1207      O1212   1.263       .  A
N1207      O1211   1.262       .  A
N1210      O1213   1.262       .  A
N1210      O1214   1.262       .  A
C1215      C1216   1.406       .  A
C1215      C1220   1.411       .  A
C1215      H1222   1.084       .  S
C1217      C1218   1.407       .  A
C1217      N1224   1.439       .  S
C1218      H1223   1.082       .  S
C1219      C1220   1.417       .  A
C1220      N1221   1.433       .  S
N1221      O1226   1.262       .  A
N1221      O1225   1.262       .  A
N1224      O1227   1.262       .  A
N1224      O1228   1.263       .  A
C1229      C1234   1.408       .  A
C1229      H1236   1.084       .  S
C1230      C1231   1.424       .  A
C1231      C1232   1.418       .  A
C1231      N1238   1.440       .  S
C1232      H1237   1.083       .  S
C1233      C1234   1.420       .  A
C1234      N1235   1.434       .  S
N1235      O1240   1.262       .  A
N1235      O1239   1.262       .  A
N1238      O1241   1.263       .  A
N1238      O1242   1.263       .  A
C1243      C1244   1.397       .  A
C1243      C1248   1.399       .  A
C1243      H1250   1.084       .  S
C1245      C1246   1.412       .  A
C1245      N1252   1.440       .  S
C1246      H1251   1.084       .  S
C1247      C1248   1.417       .  A
C1248      N1249   1.430       .  S
N1249      O1254   1.262       .  A
N1249      O1253   1.262       .  A
N1252      O1255   1.262       .  A
N1252      O1256   1.262       .  A
