geometry optimzed in LAMMPS
_audit_creation_date              2020-12-01 
_audit_creation_method            'lammps2cif' 
_symmetry_space_group_name_H-M    'P1' 
_symmetry_Int_Tables_number       1 
_symmetry_cell_setting            triclinic 
loop_ 
_symmetry_equiv_pos_as_xyz 
  x,y,z 
_cell_length_a                    46.31600975 
_cell_length_b                    46.65267872023629 
_cell_length_c                    127.79839534317593 
_cell_angle_alpha                 89.67867230191914 
_cell_angle_beta                  90.24586075323005 
_cell_angle_gamma                 120.27924672508286 
loop_ 
_atom_site_label 
_atom_site_type_symbol 
_atom_site_fract_x 
_atom_site_fract_y 
_atom_site_fract_z 
_atom_site_charge 
In1        In  0.65464253  0.66124738  0.61430941     1.36900
C2          C  0.59382248  0.60731081  0.61516255     0.78500
O3          O  0.66032372  0.66112266  0.59706915    -0.59900
O4          O  0.67962222  0.63625977  0.60596266    -0.50800
C5          C  0.65934675  0.71998943  0.61164592     0.71200
O6          O  0.63237475  0.69341483  0.61344875    -0.45700
C7          C  0.67834535  0.66908537  0.63387378     0.75900
O8          O  0.59850309  0.63491509  0.61192194    -0.57500
O9          O  0.64855283  0.65972140  0.63145215    -0.47600
O10         O  0.62022079  0.60772541  0.61791620    -0.54000
C11         C  0.67345330  0.64318547  0.59696800     0.86100
O12         O  0.68469940  0.71659359  0.61100922    -0.55900
O13         O  0.69736902  0.67524124  0.62607798    -0.59200
In14       In  0.32272525  0.33018143  0.61285167     1.36900
C15         C  0.37780568  0.38920321  0.61171621     0.78500
O16         O  0.31551425  0.29034113  0.62465565    -0.59900
O17         O  0.34463018  0.34087163  0.62898308    -0.50800
C18         C  0.26345628  0.32573043  0.61493397     0.71200
O19         O  0.28836422  0.35021294  0.61076234    -0.45700
C20         C  0.32382622  0.30688926  0.59381630     0.75900
O21         O  0.34988414  0.38517427  0.61454011    -0.57500
O22         O  0.30923844  0.32288787  0.59566266    -0.47600
O23         O  0.37722494  0.36288753  0.60910147    -0.54000
C24         C  0.33218175  0.31106010  0.63175862     0.86100
O25         O  0.26878415  0.30324715  0.61821386    -0.55900
O26         O  0.33479788  0.29981611  0.60191154    -0.59200
In27       In  0.00037769  0.34618399  0.61842333     1.36900
C28         C  0.01479996  0.40854738  0.62165165     0.78500
O29         O  0.99407936  0.33491307  0.60110510    -0.59900
O30         O  0.95306396  0.33273800  0.60883733    -0.50800
C31         C  0.05412577  0.33980421  0.61712607     0.71200
O32         O  0.05580678  0.36718162  0.61890271    -0.45700
C33         C  0.97642030  0.31120627  0.63624730     0.75900
O34         O  0.99256387  0.38393131  0.62660782    -0.57500
O35         O  0.00612999  0.33417239  0.63507322    -0.47600
O36         O  0.02973374  0.40120882  0.61492189    -0.54000
C37         C  0.96521438  0.33104402  0.60020666     0.86100
O38         O  0.02475544  0.31588139  0.61557653    -0.55900
O39         O  0.95843002  0.30535904  0.62818049    -0.59200
In40       In  0.63778234  0.97940773  0.61273772     1.36900
C41         C  0.57818941  0.97376868  0.61275766     0.78500
O42         O  0.62514441  0.97197441  0.62981477    -0.59900
O43         O  0.67500478  0.00717430  0.62571175    -0.50800
C44         C  0.64752265  0.92906039  0.60962366     0.71200
O45         O  0.62001672  0.92740679  0.60770610    -0.45700
C46         C  0.66332641  0.01811014  0.59588755     0.75900
O47         O  0.58174975  0.94879102  0.61190356    -0.57500
O48         O  0.64550258  0.98703769  0.59548296    -0.47600
O49         O  0.60514891  0.00118836  0.61340499    -0.54000
C50         C  0.65389445  0.99315428  0.63296458     0.86100
O51         O  0.67013395  0.95673948  0.61303713    -0.55900
O52         O  0.66972946  0.02953487  0.60507078    -0.59200
In53       In  0.32511608  0.00848636  0.61357772     1.36900
C54         C  0.37060872  0.98988020  0.61562893     0.78500
O55         O  0.31741734  0.03000784  0.59856627    -0.59900
O56         O  0.36669054  0.04638997  0.60370614    -0.50800
C57         C  0.26662554  0.95430440  0.60951788     0.71200
O58         O  0.29196040  0.95382503  0.61292511    -0.45700
C59         C  0.31747164  0.02981486  0.63228744     0.75900
O60         O  0.36863667  0.00953547  0.62192022    -0.57500
O61         O  0.33259751  0.05003686  0.62492434    -0.47600
O62         O  0.34899230  0.97955213  0.60843476    -0.54000
C63         C  0.34819774  0.04651908  0.59648762     0.86100
O64         O  0.27126107  0.98305339  0.60780714    -0.55900
O65         O  0.30520292  0.00000296  0.62968190    -0.59200
In66       In  0.00424232  0.67105400  0.61383831     1.36900
C67         C  0.01068659  0.61916283  0.61903853     0.78500
O68         O  0.00960912  0.68997499  0.63015782    -0.59900
O69         O  0.96046291  0.65975775  0.62437209    -0.50800
C70         C  0.05613100  0.73083914  0.60908972     0.71200
O71         O  0.05870144  0.70539293  0.61036070    -0.45700
C72         C  0.97402163  0.65254412  0.59538266     0.75900
O73         O  0.03518210  0.64842788  0.61867432    -0.57500
O74         O  0.00082828  0.65329602  0.59769389    -0.47600
O75         O  0.98306452  0.61678272  0.61683874    -0.54000
C76         C  0.97873527  0.67515863  0.63207570     0.86100
O77         O  0.02667747  0.72553706  0.61013552    -0.55900
O78         O  0.96289558  0.66304703  0.60250256    -0.59200
C79         C  0.64823140  0.54688958  0.52481779    -0.01500
C80         C  0.53075736  0.66186373  0.49048778    -0.01500
C81         C  0.64848993  0.10502119  0.52733639    -0.01500
C82         C  0.54227661  0.88773277  0.48557562    -0.01500
C83         C  0.87238418  0.55435160  0.52462084    -0.01500
C84         C  0.08982220  0.66480342  0.48204577    -0.01500
C85         C  0.42502466  0.10838188  0.52107421    -0.01500
C86         C  0.31656862  0.88522747  0.48355068    -0.01500
C87         C  0.42475760  0.32638748  0.52190141    -0.01500
C88         C  0.30902565  0.43766609  0.48273080    -0.01500
C89         C  0.08858998  0.44104958  0.48392661    -0.01500
C90         C  0.87125168  0.33405026  0.52704499    -0.01500
In91       In  0.97713229  0.65579494  0.39220699     1.36900
C92         C  0.96909728  0.59547559  0.39013194     0.78500
O93         O  0.96195151  0.65375413  0.37549817    -0.59900
O94         O  0.01279903  0.68684056  0.37906707    -0.50800
C95         C  0.92932147  0.66736272  0.39858879     0.71200
O96         O  0.92681363  0.63925483  0.39918167    -0.45700
C97         C  0.01705429  0.67480494  0.40897470     0.75900
O98         O  0.94465214  0.59972029  0.39184831    -0.57500
O99         O  0.02157026  0.69516203  0.40171032    -0.47600
O100        O  0.99669278  0.62205673  0.38894279    -0.54000
C101        C  0.99055549  0.67440076  0.37204219     0.86100
O102        O  0.95635996  0.68971540  0.39466446    -0.55900
O103        O  0.99233287  0.64630359  0.40763149    -0.59200
In104      In  0.98853310  0.33420598  0.39301570     1.36900
C105        C  0.97348522  0.38183193  0.39065460     0.78500
O106        O  0.03387312  0.37620369  0.40091802    -0.59900
O107        O  0.00662640  0.33085279  0.40910962    -0.50800
C108        C  0.93586077  0.27525222  0.39731324     0.71200
O109        O  0.93417261  0.30106213  0.39564383    -0.45700
C110        C  0.00775653  0.32128545  0.37491871     0.75900
O111        O  0.96259081  0.36116559  0.39808834    -0.57500
O112        O  0.02722343  0.33274111  0.38269511    -0.47600
O113        O  0.99048955  0.37680747  0.38401139    -0.54000
C114        C  0.02962028  0.36081541  0.40941454     0.86100
O115        O  0.96516169  0.27981494  0.39712659    -0.55900
O116        O  0.97878635  0.31621255  0.37652823    -0.59200
In117      In  0.66016645  0.00258953  0.39904098     1.36900
C118        C  0.62114438  0.02913539  0.39807890     0.78500
O119        O  0.63250865  0.97888730  0.38421008    -0.59900
O120        O  0.67772013  0.97916616  0.38724200    -0.50800
C121        C  0.72066245  0.05620296  0.40125865     0.71200
O122        O  0.69787193  0.04830303  0.40792492    -0.45700
C123        C  0.63905289  0.95643049  0.41412889     0.75900
O124        O  0.64093292  0.03275610  0.39079603    -0.57500
O125        O  0.62213073  0.95458043  0.40617675    -0.47600
O126        O  0.62331565  0.01406440  0.40597257    -0.54000
C127        C  0.65425066  0.97261627  0.38086435     0.86100
O128        O  0.71276468  0.03594622  0.39383269    -0.55900
O129        O  0.66858599  0.98062561  0.41392407    -0.59200
In130      In  0.64489848  0.63539994  0.40185537     1.36900
C131        C  0.59586929  0.57457937  0.39727607     0.78500
O132        O  0.62549538  0.61917030  0.41804496    -0.59900
O133        O  0.63418142  0.66616112  0.41296434    -0.50800
C134        C  0.70791948  0.65135601  0.40507811     0.71200
O135        O  0.68477395  0.62287430  0.40242583    -0.45700
C136        C  0.64727154  0.66135110  0.38291836     0.75900
O137        O  0.62313309  0.57953074  0.40115010    -0.57500
O138        O  0.62815893  0.66102709  0.39000209    -0.47600
O139        O  0.59455372  0.60057494  0.39575684    -0.54000
C140        C  0.62365227  0.64448309  0.42015544     0.86100
O141        O  0.69857221  0.67226638  0.40651491    -0.55900
O142        O  0.66630104  0.65089931  0.38586085    -0.59200
In143      In  0.30747361  0.32100138  0.39335742     1.36900
C144        C  0.28303833  0.32509186  0.37468992     0.78500
O145        O  0.36176174  0.34358805  0.38913958    -0.59900
O146        O  0.34717661  0.37273425  0.39782197    -0.50800
C147        C  0.28618867  0.33210307  0.41155723     0.71200
O148        O  0.28166618  0.34224599  0.40286870    -0.45700
C149        C  0.30549563  0.26277306  0.39335651     0.75900
O150        O  0.31257785  0.34413339  0.37766373    -0.57500
O151        O  0.33119931  0.29019994  0.39536915    -0.47600
O152        O  0.26474935  0.30430450  0.38153242    -0.54000
C153        C  0.37076637  0.37085026  0.39364412     0.86100
O154        O  0.29823147  0.31330537  0.41074578    -0.55900
O155        O  0.27974174  0.26477285  0.39155541    -0.59200
In156      In  0.34273103  0.00919980  0.39143423     1.36900
C157        C  0.40443272  0.02073448  0.39157965     0.78500
O158        O  0.34195360  0.00804709  0.40894645    -0.59900
O159        O  0.31658318  0.96188325  0.40121259    -0.50800
C160        C  0.33175462  0.06030012  0.39070692     0.71200
O161        O  0.35965269  0.06307559  0.38872480    -0.45700
C162        C  0.32227524  0.98430066  0.37245374     0.75900
O163        O  0.39711389  0.04256395  0.39393483    -0.57500
O164        O  0.30221935  0.97553936  0.38008653    -0.47600
O165        O  0.37983163  0.99276061  0.38928918    -0.54000
C166        C  0.32618724  0.97690334  0.40983591     0.86100
O167        O  0.30922687  0.03113885  0.39306761    -0.55900
O168        O  0.35199104  0.00533443  0.37467289    -0.59200
In169      In  0.97776327  0.70107976  0.94738820     1.36900
C170        C  0.03115442  0.76125507  0.94605292     0.78500
O171        O  0.98965765  0.71523491  0.96429263    -0.59900
O172        O  0.97834557  0.66694968  0.95994287    -0.50800
C173        C  0.91475928  0.68753220  0.94819914     0.71200
O174        O  0.93934763  0.71612435  0.94651584    -0.45700
C175        C  0.98520990  0.67487407  0.92967740     0.75900
O176        O  0.00203255  0.75655112  0.94476550    -0.57500
O177        O  0.99214218  0.66849098  0.93863184    -0.47600
O178        O  0.03243588  0.73515027  0.94745492    -0.54000
C179        C  0.98669711  0.68804179  0.96718598     0.86100
O180        O  0.92242719  0.66533911  0.94941813    -0.55900
O181        O  0.97300719  0.69364412  0.92982013    -0.59200
In182      In  0.96080243  0.29834431  0.94785913     1.36900
C183        C  0.00999057  0.28859353  0.95396708     0.78500
O184        O  0.98651772  0.30663432  0.93225495    -0.59900
O185        O  0.97929065  0.34485145  0.93803178    -0.50800
C186        C  0.90027028  0.24835895  0.94266020     0.71200
O187        O  0.92364652  0.24489922  0.94625414    -0.45700
C188        C  0.94714544  0.31616101  0.96618687     0.75900
O189        O  0.98497175  0.26772244  0.94880508    -0.57500
O190        O  0.95754483  0.33555253  0.95838393    -0.47600
O191        O  0.00965504  0.31472476  0.95620213    -0.54000
C192        C  0.99149604  0.33551724  0.93089825     0.86100
O193        O  0.90822378  0.27821622  0.94109995    -0.55900
O194        O  0.94302307  0.28784775  0.96440455    -0.59200
In195      In  0.29012373  0.31016837  0.95154560     1.36900
C196        C  0.22671940  0.29389084  0.95452827     0.78500
O197        O  0.30583679  0.35224154  0.96255781    -0.59900
O198        O  0.32339886  0.31886336  0.96535598    -0.50800
C199        C  0.29801112  0.25792432  0.95005740     0.71200
O200        O  0.27017082  0.25517993  0.95224606    -0.45700
C201        C  0.30855336  0.34232270  0.93327862     0.75900
O202        O  0.24288647  0.28851354  0.96143860    -0.57500
O203        O  0.31900860  0.35754812  0.94185234    -0.47600
O204        O  0.24286819  0.30651793  0.94626015    -0.54000
C205        C  0.32079669  0.34277317  0.96868514     0.86100
O206        O  0.32121244  0.28732410  0.94836502    -0.55900
O207        O  0.29091320  0.31127138  0.93424707    -0.59200
In208      In  0.31919790  0.99818267  0.95154481     1.36900
C209        C  0.25336170  0.96564516  0.95265641     0.78500
O210        O  0.34863747  0.99764818  0.93762353    -0.59900
O211        O  0.30751822  0.95224609  0.94265270    -0.50800
C212        C  0.32748929  0.05907258  0.94998161     0.71200
O213        O  0.32426491  0.04419898  0.95852928    -0.45700
C214        C  0.35183891  0.99686581  0.96852925     0.75900
O215        O  0.26922117  0.98402379  0.94503003    -0.57500
O216        O  0.36669888  0.01667619  0.96103032    -0.47600
O217        O  0.27141292  0.96567839  0.96005146    -0.54000
C218        C  0.32939792  0.96719360  0.93576528     0.86100
O219        O  0.32804127  0.04329047  0.94209124    -0.55900
O220        O  0.32151592  0.97639649  0.96680830    -0.59200
In221      In  0.62509675  0.98015833  0.94696636     1.36900
C222        C  0.64261598  0.93405807  0.94829712     0.78500
O223        O  0.58834487  0.97224509  0.96013778    -0.59900
O224        O  0.64024560  0.99961970  0.96318465    -0.50800
C225        C  0.67793393  0.03752479  0.94146769     0.71200
O226        O  0.67715123  0.01019565  0.94073036    -0.45700
C227        C  0.57984738  0.95986222  0.93147690     0.75900
O228        O  0.65380717  0.95601702  0.94124268    -0.57500
O229        O  0.58286788  0.94072520  0.93775354    -0.47600
O230        O  0.62314242  0.93634773  0.95464173    -0.54000
C231        C  0.61118088  0.98738859  0.96683436     0.86100
O232        O  0.65113928  0.03521577  0.94477724    -0.55900
O233        O  0.59797736  0.99009511  0.93371482    -0.59200
In234      In  0.62688139  0.65949219  0.95070996     1.36900
C235        C  0.65009546  0.72416369  0.95016647     0.78500
O236        O  0.61434078  0.63521343  0.93483495    -0.59900
O237        O  0.58401946  0.65354194  0.94053931    -0.50800
C238        C  0.68462785  0.65970949  0.95184364     0.71200
O239        O  0.67853603  0.67827999  0.95737166    -0.45700
C240        C  0.59014636  0.62492394  0.96711096     0.75900
O241        O  0.64591435  0.70719739  0.94207492    -0.57500
O242        O  0.60543673  0.61501782  0.96139923    -0.47600
O243        O  0.64451031  0.70841763  0.95866166    -0.54000
C244        C  0.59083666  0.64078268  0.93296208     0.86100
O245        O  0.66085558  0.64059659  0.94591505    -0.55900
O246        O  0.59054729  0.65042800  0.96369367    -0.59200
C247        C  0.76343553  0.77882994  0.81925793    -0.01500
C248        C  0.53077546  0.65318492  0.85696487    -0.01500
C249        C  0.75305888  0.99949271  0.81786355    -0.01500
C250        C  0.52582170  0.87552474  0.85828433    -0.01500
C251        C  0.97490598  0.75586388  0.81477091    -0.01500
C252        C  0.08333774  0.65894465  0.86096273    -0.01500
C253        C  0.98307126  0.21734830  0.82406868    -0.01500
C254        C  0.09236288  0.44147075  0.86177853    -0.01500
C255        C  0.20405372  0.21039559  0.81864021    -0.01500
C256        C  0.30771054  0.43228663  0.86036305    -0.01500
C257        C  0.19407519  0.98467650  0.81754441    -0.01500
C258        C  0.30547728  0.87854502  0.86187315    -0.01500
In259      In  0.99182514  0.31713432  0.73129721     1.36900
C260        C  0.05305866  0.32600964  0.73044116     0.78500
O261        O  0.97093301  0.30683420  0.74750530    -0.59900
O262        O  0.97689967  0.26955678  0.74039085    -0.50800
C263        C  0.98745530  0.37101857  0.73367497     0.71200
O264        O  0.01503593  0.37165235  0.73417739    -0.45700
C265        C  0.96510249  0.30029611  0.71213522     0.75900
O266        O  0.04605865  0.34344808  0.73621161    -0.57500
O267        O  0.95321269  0.28064661  0.71984758    -0.47600
O268        O  0.02898839  0.30510555  0.72499107    -0.54000
C269        C  0.97023727  0.27969985  0.74862973     0.86100
O270        O  0.96212899  0.34255762  0.73228436    -0.55900
O271        O  0.98994469  0.32816497  0.71430868    -0.59200
In272      In  0.32650324  0.32607267  0.72933800     1.36900
C273        C  0.26932851  0.32527032  0.72959902     0.78500
O274        O  0.31517156  0.32636320  0.71224723    -0.59900
O275        O  0.33715070  0.29791897  0.71674582    -0.50800
C276        C  0.38602573  0.38134213  0.73102473     0.71200
O277        O  0.35872266  0.38111504  0.73147906    -0.45700
C278        C  0.31497608  0.29575057  0.74797874     0.75900
O279        O  0.29738110  0.35175619  0.72922015    -0.57500
O280        O  0.31144204  0.28045271  0.73948239    -0.47600
O281        O  0.27066730  0.29891852  0.72972967    -0.54000
C282        C  0.32562460  0.30748519  0.70935822     0.86100
O283        O  0.38284407  0.35303664  0.72969621    -0.55900
O284        O  0.32745705  0.32654180  0.74683654    -0.59200
In285      In  0.64948087  0.66725698  0.72797831     1.36900
C286        C  0.62939766  0.71114366  0.72616239     0.78500
O287        O  0.64773587  0.67555515  0.74523250    -0.59900
O288        O  0.69446267  0.68803503  0.73875409    -0.50800
C289        C  0.60001459  0.60335945  0.72795809     0.71200
O290        O  0.59928509  0.62609748  0.72278447    -0.45700
C291        C  0.68414801  0.67545066  0.71027001     0.75900
O292        O  0.60921271  0.68066154  0.72782838    -0.57500
O293        O  0.67029739  0.69178010  0.71252338    -0.47600
O294        O  0.65951710  0.71870232  0.72529365    -0.54000
C295        C  0.67860167  0.68814859  0.74675204     0.86100
O296        O  0.62692636  0.61308999  0.73295765    -0.55900
O297        O  0.68112299  0.65484350  0.71726100    -0.59200
In298      In  0.63106790  0.97569365  0.72798463     1.36900
C299        C  0.60991858  0.91132947  0.72773386     0.78500
O300        O  0.66350420  0.97622115  0.71477121    -0.59900
O301        O  0.64961290  0.01293824  0.71487631    -0.50800
C302        C  0.57538156  0.98008561  0.72824111     0.71200
O303        O  0.57483306  0.95283578  0.72839383    -0.45700
C304        C  0.66911253  0.00152841  0.74514885     0.75900
O305        O  0.60691878  0.92636774  0.71995749    -0.57500
O306        O  0.68124336  0.00035672  0.73646895    -0.47600
O307        O  0.62296182  0.92925829  0.73568798    -0.54000
C308        C  0.66400784  0.00015447  0.71002376     0.86100
O309        O  0.60451134  0.00508280  0.72793865    -0.55900
O310        O  0.63824674  0.99125025  0.74478932    -0.59200
In311      In  0.30726770  0.99527035  0.72634180     1.36900
C312        C  0.26202196  0.93248376  0.72141254     0.78500
O313        O  0.27974406  0.97889945  0.74126931    -0.59900
O314        O  0.30414617  0.03035630  0.73829100    -0.50800
C315        C  0.36597160  0.99763997  0.72802339     0.71200
O316        O  0.34412552  0.98130302  0.72119530    -0.45700
C317        C  0.31073430  0.03075161  0.70929765     0.75900
O318        O  0.26057206  0.95736592  0.71823788    -0.57500
O319        O  0.33611767  0.03294758  0.71373976    -0.47600
O320        O  0.28717216  0.93976406  0.72705950    -0.54000
C321        C  0.28596321  0.00685755  0.74444220     0.86100
O322        O  0.35800275  0.01364849  0.73417319    -0.55900
O323        O  0.28393095  0.01296675  0.71420720    -0.59200
In324      In  0.00081832  0.64913277  0.72530696     1.36900
C325        C  0.05624570  0.70764786  0.72203042     0.78500
O326        O  0.99292506  0.63477818  0.70841521    -0.59900
O327        O  0.96276841  0.65217026  0.71501305    -0.50800
C328        C  0.99592253  0.59019121  0.72794681     0.71200
O329        O  0.02336375  0.61634181  0.72612281    -0.45700
C330        C  0.98509475  0.66027083  0.74424889     0.75900
O331        O  0.05594742  0.68046063  0.72202658    -0.57500
O332        O  0.96607372  0.65461051  0.73646106    -0.47600
O333        O  0.02811009  0.70470901  0.72364440    -0.54000
C334        C  0.97095210  0.64263874  0.70691373     0.86100
O335        O  0.97117988  0.59454437  0.72865970    -0.55900
O336        O  0.01069567  0.65823199  0.74234622    -0.59200
In337      In  0.64609730  0.97893302  0.06377407     1.36900
C338        C  0.70690784  0.03238634  0.06270719     0.78500
O339        O  0.64614744  0.96761466  0.04669968    -0.59900
O340        O  0.61468283  0.98578479  0.05166979    -0.50800
C341        C  0.62916653  0.91626707  0.06686997     0.71200
O342        O  0.65904209  0.93977826  0.06748964    -0.45700
C343        C  0.62710204  0.99316987  0.08162909     0.75900
O344        O  0.70216651  0.00331487  0.06328151    -0.57500
O345        O  0.61364757  0.99324255  0.07301661    -0.47600
O346        O  0.68047515  0.03374969  0.06241195    -0.54000
C347        C  0.62547986  0.97645753  0.04413408     0.86100
O348        O  0.60794184  0.92511125  0.06505348    -0.55900
O349        O  0.64827414  0.98388264  0.08100058    -0.59200
In350      In  0.63255193  0.65175831  0.06270442     1.36900
C351        C  0.69536304  0.66463500  0.06344960     0.78500
O352        O  0.62932783  0.64996465  0.07990458    -0.59900
O353        O  0.61024939  0.60394478  0.07201408    -0.50800
C354        C  0.61605471  0.69845042  0.06331671     0.71200
O355        O  0.64446468  0.70370493  0.06059227    -0.45700
C356        C  0.61116192  0.63064323  0.04334162     0.75900
O357        O  0.68770366  0.68596625  0.06610824    -0.57500
O358        O  0.59359830  0.61517595  0.05121672    -0.47600
O359        O  0.67101241  0.63758837  0.06034771    -0.54000
C360        C  0.61726381  0.61905841  0.08065918     0.86100
O361        O  0.59565438  0.66888435  0.06600483    -0.55900
O362        O  0.63883155  0.65574541  0.04559162    -0.59200
In363      In  0.98146166  0.69086615  0.06427617     1.36900
C364        C  0.92276480  0.68680218  0.06498893     0.78500
O365        O  0.97291191  0.69608833  0.04739542    -0.59900
O366        O  0.98947870  0.66245807  0.05135832    -0.50800
C367        C  0.04223783  0.74423308  0.06583695     0.71200
O368        O  0.01587186  0.74550725  0.06710572    -0.45700
C369        C  0.97132542  0.65959694  0.08245838     0.75900
O370        O  0.94982086  0.71430704  0.06434645    -0.57500
O371        O  0.96780142  0.64460983  0.07389606    -0.47600
O372        O  0.92596782  0.66152745  0.06519035    -0.54000
C373        C  0.98088786  0.67555569  0.04419234     0.86100
O374        O  0.03727302  0.71546134  0.06404877    -0.55900
O375        O  0.98314342  0.69042281  0.08152059    -0.59200
In376      In  0.32290793  0.01432038  0.06136233     1.36900
C377        C  0.31537388  0.06728862  0.06086322     0.78500
O378        O  0.31949358  0.01316159  0.07865091    -0.59900
O379        O  0.36793278  0.03427188  0.07201746    -0.50800
C380        C  0.26774186  0.95408275  0.06184505     0.71200
O381        O  0.26853893  0.97985342  0.05842726    -0.45700
C382        C  0.35220229  0.01643752  0.04318044     0.75900
O383        O  0.34368554  0.06973293  0.06160555    -0.57500
O384        O  0.35671620  0.00315581  0.05118668    -0.47600
O385        O  0.29127648  0.03781412  0.06041590    -0.54000
C386        C  0.35058298  0.02821566  0.08020234     0.86100
O387        O  0.29578748  0.95884036  0.06492289    -0.55900
O388        O  0.33261041  0.02725011  0.04462203    -0.59200
In389      In  0.28222095  0.32114485  0.06372212     1.36900
C390        C  0.28416844  0.26582409  0.06025407     0.78500
O391        O  0.26944424  0.32101298  0.04710232    -0.59900
O392        O  0.31749153  0.35897149  0.05212299    -0.50800
C393        C  0.22810270  0.32535813  0.06797354     0.71200
O394        O  0.22748021  0.29845155  0.06631122    -0.45700
C395        C  0.31683796  0.33753908  0.08140372     0.75900
O396        O  0.25892616  0.26580837  0.06392760    -0.57500
O397        O  0.28901010  0.31159517  0.08011056    -0.47600
O398        O  0.30829102  0.29425814  0.05810015    -0.54000
C399        C  0.29734015  0.34552541  0.04459532     0.86100
O400        O  0.25695033  0.35076525  0.06748844    -0.55900
O401        O  0.32663334  0.35712988  0.07365694    -0.59200
In402      In  0.95317196  0.31693691  0.05942287     1.36900
C403        C  0.91621848  0.25076955  0.05834443     0.78500
O404        O  0.95810583  0.35367173  0.07207532    -0.59900
O405        O  0.91303798  0.30793160  0.07082051    -0.50800
C406        C  0.01255982  0.32249217  0.06216144     0.71200
O407        O  0.99519225  0.30970632  0.05406931    -0.45700
C408        C  0.95085858  0.34664332  0.04162306     0.75900
O409        O  0.93467442  0.26534564  0.06608608    -0.57500
O410        O  0.97802083  0.35400947  0.04609381    -0.47600
O411        O  0.91801271  0.27008437  0.05111921    -0.54000
C412        C  0.92968904  0.33424852  0.07594421     0.86100
O413        O  0.00002917  0.33362046  0.06857848    -0.55900
O414        O  0.92543835  0.32718126  0.04688580    -0.59200
C415        C  0.75521201  0.76981209  0.19361800    -0.01500
C416        C  0.63982494  0.55413053  0.15454652    -0.01500
C417        C  0.73393785  0.98229649  0.19255789    -0.01500
C418        C  0.62816743  0.09728996  0.15122439    -0.01500
C419        C  0.41174929  0.34044111  0.15238756    -0.01500
C420        C  0.18108001  0.21234593  0.18926085    -0.01500
C421        C  0.42386936  0.12543554  0.15298025    -0.01500
C422        C  0.19184203  0.00221544  0.18860094    -0.01500
C423        C  0.97869232  0.77275482  0.18834390    -0.01500
C424        C  0.86087187  0.55235865  0.15215957    -0.01500
C425        C  0.84736134  0.32430830  0.15053614    -0.01500
C426        C  0.95670988  0.20792302  0.19081546    -0.01500
In427      In  0.99613979  0.32327912  0.28118030     1.36900
C428        C  0.02552545  0.32989735  0.29958829     0.78500
O429        O  0.02678913  0.37892260  0.27947099    -0.59900
O430        O  0.97398812  0.35417638  0.27737085    -0.50800
C431        C  0.01207672  0.30133010  0.26411200     0.71200
O432        O  0.02438137  0.33184514  0.26589460    -0.45700
C433        C  0.93150028  0.27943007  0.28381017     0.75900
O434        O  0.00933376  0.34399206  0.29724578    -0.57500
O435        O  0.94272246  0.30025943  0.27644605    -0.47600
O436        O  0.02826636  0.31337482  0.29225697    -0.54000
C437        C  0.00121748  0.38137319  0.27770481     0.86100
O438        O  0.99524596  0.28293984  0.27158871    -0.55900
O439        O  0.95350508  0.28162712  0.29012126    -0.59200
In440      In  0.97008009  0.63517779  0.27682063     1.36900
C441        C  0.91344633  0.63177945  0.28216460     0.78500
O442        O  0.00780147  0.67592676  0.28735026    -0.59900
O443        O  0.97939530  0.62674985  0.29327368    -0.50800
C444        C  0.98054787  0.58504757  0.27390044     0.71200
O445        O  0.00244302  0.61435816  0.27138709    -0.45700
C446        C  0.97279727  0.66193708  0.25818185     0.75900
O447        O  0.91497813  0.60718494  0.27879226    -0.57500
O448        O  0.94825902  0.63503087  0.26125904    -0.47600
O449        O  0.94133856  0.65799808  0.28323371    -0.54000
C450        C  0.00027521  0.65665030  0.29517334     0.86100
O451        O  0.95337849  0.58183694  0.27711901    -0.55900
O452        O  0.99739539  0.67447720  0.26445586    -0.59200
In453      In  0.64765282  0.64570978  0.28480848     1.36900
C454        C  0.70314883  0.64295200  0.28503880     0.78500
O455        O  0.64772088  0.64129063  0.26745052    -0.59900
O456        O  0.66147355  0.68857908  0.27374122    -0.50800
C457        C  0.58530545  0.59613882  0.28294278     0.71200
O458        O  0.60999163  0.59182584  0.28385246    -0.45700
C459        C  0.64528863  0.66164076  0.30472835     0.75900
O460        O  0.70365235  0.67024036  0.28515462    -0.57500
O461        O  0.64414646  0.63545226  0.30173478    -0.47600
O462        O  0.67433341  0.61754232  0.28505011    -0.54000
C463        C  0.65847743  0.67158116  0.26566104     0.86100
O464        O  0.59270626  0.62623538  0.28300822    -0.55900
O465        O  0.64834112  0.68130404  0.29735731    -0.59200
In466      In  0.65676605  0.01383104  0.28453778     1.36900
C467        C  0.65884422  0.99718416  0.30441254     0.78500
O468        O  0.71077363  0.04868768  0.28168796    -0.59900
O469        O  0.68083868  0.06858597  0.28683748    -0.50800
C470        C  0.66497452  0.98824318  0.26692653     0.71200
O471        O  0.67383773  0.98239940  0.27569323    -0.45700
C472        C  0.59634265  0.00457474  0.28095658     0.75900
O473        O  0.65273805  0.97726356  0.29692828    -0.57500
O474        O  0.62280049  0.03138286  0.27898127    -0.47600
O475        O  0.66308298  0.02494654  0.30165723    -0.54000
C476        C  0.70928571  0.07410575  0.28409377     0.86100
O477        O  0.65187621  0.00613649  0.26745721    -0.55900
O478        O  0.60076190  0.98244668  0.28512054    -0.59200
In479      In  0.33028921  0.01567856  0.27748338     1.36900
C480        C  0.33249715  0.07294011  0.28035657     0.78500
O481        O  0.33429227  0.02500414  0.26018501    -0.59900
O482        O  0.28633871  0.99196261  0.26641345    -0.50800
C483        C  0.38203990  0.00687434  0.27591541     0.71200
O484        O  0.38445306  0.03441974  0.27798889    -0.45700
C485        C  0.30876722  0.98790977  0.29632940     0.75900
O486        O  0.35839762  0.07145572  0.27830471    -0.57500
O487        O  0.29783094  0.97085363  0.28805898    -0.47600
O488        O  0.30592821  0.04511065  0.28103639    -0.54000
C489        C  0.30340212  0.00755121  0.25846169     0.86100
O490        O  0.35257543  0.98342635  0.27433204    -0.55900
O491        O  0.33019937  0.01794024  0.29480544    -0.59200
In492      In  0.30743628  0.33184726  0.27831439     1.36900
C493        C  0.28641746  0.33118523  0.29755811     0.78500
O494        O  0.28519250  0.27648564  0.27842079    -0.59900
O495        O  0.33772099  0.30690417  0.28028437    -0.50800
C496        C  0.27636143  0.31443891  0.26004123     0.71200
O497        O  0.26059563  0.31183271  0.26837966    -0.45700
C498        C  0.35893163  0.39361727  0.27665195     0.75900
O499        O  0.27444046  0.33908593  0.28988137    -0.57500
O500        O  0.36106545  0.36805250  0.27516102    -0.47600
O501        O  0.30873685  0.32449349  0.29523760    -0.54000
C502        C  0.31287101  0.27780548  0.27963014     0.86100
O503        O  0.30767186  0.32984729  0.26105495    -0.55900
O504        O  0.32987426  0.38775489  0.27882972    -0.59200
C505        C  0.35499458  0.16332938  0.27863286    -0.13400
C506        C  0.32755285  0.16210616  0.28368241     0.17000
C507        C  0.30291312  0.13180528  0.28811915     0.03300
C508        C  0.30549524  0.10335695  0.28709777    -0.11900
C509        C  0.33254566  0.10438662  0.28183728    -0.03000
C510        C  0.35793320  0.13500254  0.27778870     0.02500
C511        C  0.32339919  0.19163685  0.28321814     0.09400
N512        N  0.27517478  0.12947199  0.29373168     0.65700
H513        H  0.28604354  0.08023194  0.29043035     0.18600
N514        N  0.38594023  0.13755406  0.27230154     0.76200
H515        H  0.37364096  0.18611333  0.27492257     0.10100
C516        C  0.34882394  0.22322617  0.28653937     0.03800
C517        C  0.34491760  0.25086353  0.28519501    -0.04900
C518        C  0.31604256  0.24786304  0.28053578    -0.23300
C519        C  0.29083852  0.21633898  0.27702400     0.13100
C520        C  0.29471444  0.18867535  0.27841978    -0.12400
N521        N  0.37863123  0.22768027  0.29140818     0.64800
H522        H  0.36455089  0.27480836  0.28793302     0.12600
N523        N  0.26209022  0.21218534  0.27149440     0.61400
H524        H  0.27566558  0.16489616  0.27538918     0.08800
O525        O  0.41394279  0.15027663  0.27684156    -0.40100
O526        O  0.38465480  0.13488739  0.26246762    -0.39200
O527        O  0.24645439  0.11449165  0.28963528    -0.39200
O528        O  0.27780854  0.13450202  0.30347008    -0.36900
O529        O  0.26268854  0.21346390  0.26162500    -0.37900
O530        O  0.23435052  0.19955409  0.27615543    -0.34000
O531        O  0.40551576  0.24086281  0.28625500    -0.35400
O532        O  0.37986043  0.22641915  0.30125245    -0.39700
C533        C  0.52755398  0.01904296  0.27114777    -0.13400
C534        C  0.50058701  0.99611892  0.27721117     0.17000
C535        C  0.50407480  0.97304749  0.28345022     0.03300
C536        C  0.53526295  0.97524629  0.28423585    -0.11900
C537        C  0.56299937  0.99998424  0.27880228    -0.03000
C538        C  0.55857645  0.02109204  0.27183241     0.02500
C539        C  0.46974073  0.99795322  0.27715813     0.09400
N540        N  0.47666742  0.94818011  0.28935232     0.65700
H541        H  0.53803532  0.95835410  0.28943478     0.18600
N542        N  0.58503100  0.04435247  0.26525807     0.76200
H543        H  0.52459749  0.03582595  0.26594635     0.10100
C544        C  0.47053172  0.02720622  0.28033129     0.03800
C545        C  0.44172197  0.02936921  0.27969880    -0.04900
C546        C  0.41173146  0.00297050  0.27584152    -0.23300
C547        C  0.41102915  0.97382835  0.27244257     0.13100
C548        C  0.43996987  0.97147732  0.27321999    -0.12400
N549        N  0.50041364  0.05499376  0.28428677     0.64800
H550        H  0.44294958  0.05198647  0.28234972     0.12600
N551        N  0.38185694  0.94713837  0.26775180     0.61400
H552        H  0.43947825  0.94932432  0.27044939     0.08800
O553        O  0.59986172  0.07480397  0.26751609    -0.40100
O554        O  0.58757526  0.03577614  0.25611718    -0.39200
O555        O  0.46083722  0.91888699  0.28590874    -0.39200
O556        O  0.47374058  0.95341429  0.29885690    -0.36900
O557        O  0.37857087  0.94660654  0.25793480    -0.37900
O558        O  0.36416197  0.92095540  0.27295389    -0.34000
O559        O  0.51714707  0.07976418  0.27840707    -0.35400
O560        O  0.50497861  0.05827537  0.29404806    -0.39700
C561        C  0.50951385  0.50933417  0.28079792    -0.13400
C562        C  0.48457946  0.51622753  0.27767119     0.17000
C563        C  0.49253320  0.54962830  0.27697210     0.03300
C564        C  0.52532870  0.57522010  0.27890596    -0.11900
C565        C  0.55059230  0.56826744  0.28162916    -0.03000
C566        C  0.54220198  0.53476934  0.28274198     0.02500
C567        C  0.45035561  0.48777116  0.27583732     0.09400
N568        N  0.46792567  0.55811544  0.27411155     0.65700
H569        H  0.53109730  0.60070672  0.27810143     0.18600
N570        N  0.56622079  0.52591714  0.28603528     0.76200
H571        H  0.50345118  0.48384688  0.28189293     0.10100
C572        C  0.44504140  0.46175887  0.26905351     0.03800
C573        C  0.41458608  0.43188036  0.26921925    -0.04900
C574        C  0.38862857  0.42730565  0.27588278    -0.23300
C575        C  0.39295491  0.45412575  0.28211447     0.13100
C576        C  0.42380179  0.48394855  0.28210312    -0.12400
N577        N  0.47059861  0.46502734  0.26208032     0.64800
H578        H  0.41146223  0.41182822  0.26421049     0.12600
N579        N  0.36749680  0.45068879  0.28914304     0.61400
H580        H  0.42762066  0.50337143  0.28750342     0.08800
O581        O  0.57930367  0.51625801  0.27931373    -0.40100
O582        O  0.56789513  0.51992333  0.29559004    -0.39200
O583        O  0.45545709  0.56749394  0.28112783    -0.39200
O584        O  0.46567334  0.56481816  0.26467198    -0.36900
O585        O  0.36818004  0.44250518  0.29852875    -0.37900
O586        O  0.35001685  0.46351890  0.28674725    -0.34000
O587        O  0.48601384  0.44974901  0.26408009    -0.35400
O588        O  0.47157619  0.47568712  0.25291770    -0.39700
C589        C  0.84766727  0.65280681  0.29040026    -0.13400
C590        C  0.81978335  0.62879005  0.28485169     0.17000
C591        C  0.82258824  0.60482831  0.27896833     0.03300
C592        C  0.85299978  0.60539785  0.27874171    -0.11900
C593        C  0.88126393  0.63019076  0.28393852    -0.03000
C594        C  0.87840136  0.65403502  0.28988842     0.02500
C595        C  0.78931359  0.63142941  0.28468242     0.09400
N596        N  0.79599679  0.58162749  0.27243815     0.65700
H597        H  0.85494863  0.58740075  0.27392245     0.18600
N598        N  0.90635178  0.67991062  0.29532778     0.76200
H599        H  0.84579047  0.67139618  0.29492130     0.10100
C600        C  0.75832382  0.60593557  0.28846122     0.03800
C601        C  0.73071226  0.61038889  0.28839754    -0.04900
C602        C  0.73345056  0.64022951  0.28493618    -0.23300
C603        C  0.76460280  0.66601029  0.28132358     0.13100
C604        C  0.79204297  0.66121470  0.28111739    -0.12400
N605        N  0.75477455  0.57631531  0.29303172     0.64800
H606        H  0.70711326  0.59059657  0.29138739     0.12600
N607        N  0.76881925  0.69693234  0.27770024     0.61400
H608        H  0.81580811  0.68104293  0.27823743     0.08800
O609        O  0.90941436  0.67681449  0.30501889    -0.40100
O610        O  0.92237379  0.70834217  0.29118858    -0.39200
O611        O  0.79336352  0.59050899  0.26330784    -0.39200
O612        O  0.78278655  0.55104154  0.27443249    -0.36900
O613        O  0.78062440  0.72135117  0.28384941    -0.37900
O614        O  0.76860109  0.70191853  0.26799281    -0.34000
O615        O  0.76159454  0.57649545  0.30260881    -0.35400
O616        O  0.73574757  0.54887459  0.28867039    -0.39700
C617        C  0.77237180  0.16416597  0.28962933    -0.13400
C618        C  0.79695173  0.16994828  0.28222873     0.17000
C619        C  0.79185821  0.14464167  0.27520969     0.03300
C620        C  0.76273720  0.11376790  0.27587662    -0.11900
C621        C  0.73853657  0.10758715  0.28346135    -0.03000
C622        C  0.74319199  0.13319003  0.29031328     0.02500
C623        C  0.82982823  0.20015640  0.28314296     0.09400
N624        N  0.81694922  0.14905581  0.26785930     0.65700
H625        H  0.75937126  0.09427975  0.27055991     0.18600
N626        N  0.72021506  0.12732716  0.29859700     0.76200
H627        H  0.77664087  0.18329815  0.29522581     0.10100
C628        C  0.84140351  0.22601133  0.27576167     0.03800
C629        C  0.87426346  0.25241089  0.27642505    -0.04900
C630        C  0.89576864  0.25371176  0.28445436    -0.23300
C631        C  0.88302869  0.22897224  0.29232544     0.13100
C632        C  0.85036317  0.20231283  0.29152267    -0.12400
N633        N  0.82002726  0.22613317  0.26768746     0.64800
H634        H  0.88313459  0.27161340  0.27047114     0.12600
N635        N  0.90272590  0.23021837  0.30113069     0.61400
H636        H  0.84114058  0.18276980  0.29737753     0.08800
O637        O  0.69999174  0.13782893  0.29771506    -0.40100
O638        O  0.72570745  0.11942285  0.30752914    -0.39200
O639        O  0.83742942  0.13985233  0.27034916    -0.39200
O640        O  0.81278263  0.15301634  0.25831157    -0.36900
O641        O  0.89970717  0.24217720  0.30961291    -0.37900
O642        O  0.91558439  0.21195934  0.30126573    -0.34000
O643        O  0.80428769  0.24129171  0.26921304    -0.35400
O644        O  0.82362631  0.21907302  0.25845103    -0.39700
C645        C  0.02363489  0.47133433  0.28030991    -0.13400
C646        C  0.99612528  0.47019475  0.27529886     0.17000
C647        C  0.97185284  0.44062264  0.27054456     0.03300
C648        C  0.97491558  0.41243805  0.27110053    -0.11900
C649        C  0.00190246  0.41306947  0.27634306    -0.03000
C650        C  0.02676014  0.44302170  0.28086959     0.02500
C651        C  0.99303014  0.50004467  0.27509750     0.09400
N652        N  0.94396125  0.43879152  0.26510482     0.65700
H653        H  0.95570307  0.38972884  0.26751644     0.18600
N654        N  0.05407979  0.44466459  0.28660382     0.76200
H655        H  0.04237111  0.49411901  0.28398047     0.10100
C656        C  0.97218321  0.50386407  0.28221480     0.03800
C657        C  0.96860590  0.53173099  0.28152708    -0.04900
C658        C  0.98607370  0.55653863  0.27398775    -0.23300
C659        C  0.00809094  0.55334037  0.26712436     0.13100
C660        C  0.01110822  0.52493382  0.26767629    -0.12400
N661        N  0.95530267  0.48023581  0.29039154     0.64800
H662        H  0.95240106  0.53422080  0.28708927     0.12600
N663        N  0.02664624  0.57789591  0.25935693     0.61400
H664        H  0.02744773  0.52215521  0.26224945     0.08800
O665        O  0.05248249  0.44267661  0.29645265    -0.40100
O666        O  0.08207544  0.45594766  0.28218652    -0.39200
O667        O  0.94495990  0.44122144  0.25526004    -0.39200
O668        O  0.91606369  0.42626682  0.26966251    -0.36900
O669        O  0.05698666  0.59881620  0.26107614    -0.37900
O670        O  0.01589529  0.57307664  0.25007035    -0.34000
O671        O  0.96818953  0.48600674  0.29940910    -0.35400
O672        O  0.92465865  0.45914996  0.28936747    -0.39700
C673        C  0.02368749  0.29388760  0.23502638    -0.13400
C674        C  0.99976398  0.26039229  0.23341860     0.17000
C675        C  0.98476638  0.23966487  0.24216697     0.03300
C676        C  0.99190227  0.25320455  0.25222407    -0.11900
C677        C  0.01325728  0.28744977  0.25379667    -0.03000
C678        C  0.03031591  0.30765238  0.24507779     0.02500
C679        C  0.98971029  0.24782437  0.22259734     0.09400
N680        N  0.95995239  0.20546464  0.24093398     0.65700
H681        H  0.97854914  0.23707373  0.25875914     0.18600
N682        N  0.05323697  0.34239005  0.24616127     0.76200
H683        H  0.03638796  0.30978759  0.22838416     0.10100
C684        C  0.97779554  0.26280667  0.21557245     0.03800
C685        C  0.96820094  0.25037824  0.20546551    -0.04900
C686        C  0.96852693  0.22181731  0.20205860    -0.23300
C687        C  0.98253759  0.20794229  0.20912388     0.13100
C688        C  0.99257434  0.22097039  0.21920129    -0.12400
N689        N  0.97444718  0.29038712  0.21863659     0.64800
H690        H  0.96124035  0.26422736  0.20030300     0.12600
N691        N  0.98813010  0.18150681  0.20619225     0.61400
H692        H  0.00304665  0.21011432  0.22440133     0.08800
O693        O  0.04360352  0.36264412  0.24395699    -0.40100
O694        O  0.08415975  0.35261767  0.24655823    -0.39200
O695        O  0.96713461  0.18337386  0.24311545    -0.39200
O696        O  0.92969519  0.19743321  0.23987107    -0.36900
O697        O  0.96826739  0.15230377  0.20925463    -0.37900
O698        O  0.01748942  0.18882245  0.20395134    -0.34000
O699        O  0.99475682  0.31890192  0.21511230    -0.35400
O700        O  0.94714901  0.28504241  0.22250782    -0.39700
C701        C  0.90743136  0.31174852  0.17023831    -0.13400
C702        C  0.90611972  0.28334856  0.16593391     0.17000
C703        C  0.88619073  0.26938175  0.15700821     0.03300
C704        C  0.86824922  0.28339974  0.15269131    -0.11900
C705        C  0.86923115  0.31227078  0.15674920    -0.03000
C706        C  0.88969690  0.32644209  0.16583086     0.02500
C707        C  0.92035080  0.26528057  0.17188839     0.09400
N708        N  0.88235472  0.23977428  0.15243467     0.65700
H709        H  0.85330589  0.27144453  0.14581952     0.18600
N710        N  0.89171958  0.35418590  0.17119980     0.76200
H711        H  0.92167256  0.32213621  0.17735407     0.10100
C712        C  0.94735370  0.26178734  0.16844064     0.03800
C713        C  0.95799551  0.24298481  0.17435542    -0.04900
C714        C  0.94357717  0.22822190  0.18414523    -0.23300
C715        C  0.91494655  0.23069884  0.18708180     0.13100
C716        C  0.90452429  0.24925773  0.18112408    -0.12400
N717        N  0.96524855  0.27813037  0.15915183     0.64800
H718        H  0.97790924  0.24022066  0.17108790     0.12600
N719        N  0.89509383  0.21441364  0.19603920     0.61400
H720        H  0.88295914  0.25059158  0.18371438     0.08800
O721        O  0.91906549  0.38135625  0.17102901    -0.40100
O722        O  0.87180573  0.34885798  0.17864175    -0.39200
O723        O  0.85764487  0.21218303  0.15505965    -0.39200
O724        O  0.89707579  0.24188030  0.14393559    -0.36900
O725        O  0.89630592  0.23228052  0.20360675    -0.37900
O726        O  0.86833430  0.18721629  0.19462242    -0.34000
O727        O  0.99052473  0.30683067  0.15989002    -0.35400
O728        O  0.96201311  0.26104174  0.15114969    -0.39700
C729        C  0.87432053  0.47990204  0.16305260    -0.13400
C730        C  0.85716896  0.45549959  0.15541949     0.17000
C731        C  0.84044739  0.46234464  0.14744451     0.03300
C732        C  0.84190645  0.49307939  0.14703128    -0.11900
C733        C  0.86018976  0.51876132  0.15435651    -0.03000
C734        C  0.87561706  0.51092245  0.16279030     0.02500
C735        C  0.85559397  0.42248888  0.15596457     0.09400
N736        N  0.82326251  0.43897357  0.13928079     0.65700
H737        H  0.82955496  0.49749994  0.14052351     0.18600
N738        N  0.89136202  0.53263322  0.17145009     0.76200
H739        H  0.88624190  0.47451954  0.16946874     0.10100
C740        C  0.88371490  0.41915979  0.15425670     0.03800
C741        C  0.88020784  0.38736027  0.15346807    -0.04900
C742        C  0.84883121  0.35742035  0.15428054    -0.23300
C743        C  0.82053352  0.36160521  0.15644732     0.13100
C744        C  0.82475700  0.39361726  0.15741907    -0.12400
N745        N  0.91573444  0.44792143  0.15252075     0.64800
H746        H  0.90227827  0.38610016  0.15153485     0.12600
N747        N  0.78653928  0.33493375  0.15664614     0.61400
H748        H  0.80290118  0.39591855  0.15873035     0.08800
O749        O  0.92250552  0.54525682  0.17263045    -0.40100
O750        O  0.87398054  0.52927513  0.17942661    -0.39200
O751        O  0.79189189  0.42075607  0.13972935    -0.39200
O752        O  0.83791455  0.44223393  0.13067942    -0.36900
O753        O  0.77022318  0.32967353  0.16501292    -0.37900
O754        O  0.77028183  0.32649481  0.14818846    -0.34000
O755        O  0.92265328  0.46194148  0.14367440    -0.35400
O756        O  0.93508375  0.46194142  0.16015645    -0.39700
C757        C  0.98414355  0.75751911  0.21845287    -0.13400
C758        C  0.97245490  0.72349483  0.21873372     0.17000
C759        C  0.95752235  0.70478219  0.20970472     0.03300
C760        C  0.95838093  0.72077572  0.20035470    -0.11900
C761        C  0.97486505  0.75590274  0.19944512    -0.03000
C762        C  0.98331836  0.77333056  0.20917579     0.02500
C763        C  0.97293601  0.70762957  0.22876333     0.09400
N764        N  0.94161082  0.66940598  0.20980193     0.65700
H765        H  0.94586412  0.70483262  0.19377229     0.18600
N766        N  0.98798191  0.80580225  0.21016200     0.76200
H767        H  0.99224648  0.77164561  0.22564888     0.10100
C768        C  0.00315161  0.71628643  0.23397368     0.03800
C769        C  0.00260216  0.70129631  0.24355844    -0.04900
C770        C  0.97230004  0.67751879  0.24809492    -0.23300
C771        C  0.94195745  0.66932514  0.24293218     0.13100
C772        C  0.94261642  0.68445616  0.23338613    -0.12400
N773        N  0.03466081  0.73964629  0.22950824     0.64800
H774        H  0.02607534  0.70798734  0.24739117     0.12600
N775        N  0.91016311  0.64675227  0.24742762     0.61400
H776        H  0.91919944  0.67848220  0.22964993     0.08800
O777        O  0.01648788  0.82928859  0.21273641    -0.40100
O778        O  0.96272108  0.80786922  0.21261518    -0.39200
O779        O  0.91010351  0.65241173  0.21008151    -0.39200
O780        O  0.95785685  0.65587642  0.20684784    -0.36900
O781        O  0.89561643  0.65800869  0.25294979    -0.37900
O782        O  0.89348106  0.61771116  0.24383016    -0.34000
O783        O  0.05068704  0.76862435  0.23318901    -0.35400
O784        O  0.04960970  0.72930177  0.22378905    -0.39700
C785        C  0.97821784  0.69763983  0.17520856    -0.13400
C786        C  0.95030360  0.68630851  0.16858922     0.17000
C787        C  0.94031631  0.70935278  0.16569937     0.03300
C788        C  0.95215694  0.73897154  0.17128121    -0.11900
C789        C  0.97537171  0.74750248  0.17954043    -0.03000
C790        C  0.99235929  0.72900280  0.18008670     0.02500
C791        C  0.92836887  0.64991917  0.16614979     0.09400
N792        N  0.91755959  0.70277534  0.15722974     0.65700
H793        H  0.94173377  0.75454896  0.16939155     0.18600
N794        N  0.02161993  0.73973150  0.18640053     0.76200
H795        H  0.98799291  0.68152490  0.17712575     0.10100
C796        C  0.94001983  0.62904788  0.16257587     0.03800
C797        C  0.91707279  0.59576600  0.16001077    -0.22900
C798        C  0.88184185  0.58228005  0.15993867    -0.23300
C799        C  0.87075055  0.60340778  0.16436107     0.13100
C800        C  0.89397200  0.63551984  0.16777936    -0.12400
N801        N  0.97462444  0.64173048  0.16041313     0.64800
H802        H  0.92724989  0.58161257  0.15671222     0.12600
N803        N  0.83672513  0.59561278  0.16450332     0.61400
H804        H  0.88447668  0.65034856  0.17119097     0.08800
O805        O  0.04978996  0.75853224  0.18231138    -0.40100
O806        O  0.02017479  0.72320133  0.19443608    -0.39200
O807        O  0.88837206  0.69693116  0.15914837    -0.39200
O808        O  0.92924244  0.71200797  0.14814089    -0.36900
O809        O  0.82217052  0.58995376  0.17323289    -0.37900
O810        O  0.82675557  0.60680887  0.15719144    -0.34000
O811        O  0.99110549  0.63322116  0.16624082    -0.35400
O812        O  0.98546895  0.65270046  0.15135705    -0.39700
C813        C  0.21777421  0.97876759  0.21540792    -0.13400
C814        C  0.24198369  0.00993657  0.21901968     0.17000
C815        C  0.25235938  0.03748567  0.21233807     0.03300
C816        C  0.23671184  0.03358675  0.20260853    -0.11900
C817        C  0.20939135  0.00279835  0.19929493    -0.03000
C818        C  0.20249863  0.97446677  0.20560819     0.02500
C819        C  0.25814475  0.01178857  0.22929182     0.09400
N820        N  0.27812497  0.06984246  0.21537699     0.65700
H821        H  0.24511791  0.05542139  0.19773935     0.18600
N822        N  0.18314672  0.94092944  0.20207160     0.76200
H823        H  0.21189626  0.95697747  0.22005354     0.10100
C824        C  0.23900247  0.99908545  0.23851192     0.03800
C825        C  0.25408401  0.99704296  0.24778713    -0.04900
C826        C  0.28823442  0.00742523  0.24817443    -0.23300
C827        C  0.30744599  0.02007426  0.23893134     0.13100
C828        C  0.29230436  0.02215384  0.22963930    -0.12400
N829        N  0.20417794  0.98844571  0.23863718     0.64800
H830        H  0.23895689  0.98777924  0.25479066     0.12600
N831        N  0.34195405  0.02946090  0.23867641     0.61400
H832        H  0.30709211  0.03072772  0.22255445     0.08800
O833        O  0.19741733  0.92910398  0.19668056    -0.40100
O834        O  0.15773215  0.92105892  0.20729602    -0.39200
O835        O  0.30677348  0.08176171  0.21135712    -0.39200
O836        O  0.27011821  0.08916644  0.21964401    -0.36900
O837        O  0.34982399  0.00816515  0.23616819    -0.37900
O838        O  0.36401208  0.05983656  0.23853232    -0.34000
O839        O  0.18307023  0.95777810  0.23876139    -0.35400
O840        O  0.19516286  0.00872164  0.24134175    -0.39700
C841        C  0.05121068  0.85541885  0.17653911    -0.13400
C842        C  0.07486950  0.86656967  0.18461823     0.17000
C843        C  0.06982825  0.84496317  0.19299449     0.03300
C844        C  0.04019884  0.81424303  0.19370147    -0.11900
C845        C  0.01367509  0.80458211  0.18647588    -0.03000
C846        C  0.02151952  0.82431259  0.17715976     0.02500
C847        C  0.10366885  0.90132791  0.18472263     0.09400
N848        N  0.09480393  0.85402083  0.20090376     0.65700
H849        H  0.03860511  0.79806993  0.20000969     0.18600
N850        N  0.00095899  0.81260182  0.16800084     0.76200
H851        H  0.05563420  0.87102705  0.16972852     0.10100
C852        C  0.13095479  0.91267639  0.17785060     0.03800
C853        C  0.15851120  0.94531820  0.17873528    -0.04900
C854        C  0.16037259  0.96690179  0.18683431    -0.23300
C855        C  0.13164874  0.95491404  0.19351173     0.13100
C856        C  0.10412090  0.92294065  0.19228249    -0.12400
N857        N  0.13172228  0.89056027  0.17032237     0.64800
H858        H  0.17862881  0.95311368  0.17318457     0.12600
N859        N  0.12988826  0.97437520  0.20183738     0.61400
H860        H  0.08307051  0.91449644  0.19756139     0.08800
O861        O  0.00844374  0.79831759  0.16106472    -0.40100
O862        O  0.98321190  0.82495861  0.16541377    -0.39200
O863        O  0.12192662  0.85510911  0.19878998    -0.39200
O864        O  0.09079874  0.86328104  0.20976662    -0.36900
O865        O  0.11177688  0.98723693  0.20061984    -0.37900
O866        O  0.13680959  0.96975944  0.21102764    -0.34000
O867        O  0.13764613  0.86819802  0.17331253    -0.35400
O868        O  0.11973622  0.88885710  0.16131322    -0.39700
C869        C  0.26840173  0.05603387  0.16974256    -0.13400
C870        C  0.28785514  0.04136775  0.17145437     0.17000
C871        C  0.27177709  0.00964613  0.17620470     0.03300
C872        C  0.23893357  0.99599636  0.18015402    -0.11900
C873        C  0.22152442  0.01383585  0.18037431    -0.03000
C874        C  0.23757908  0.04483893  0.17470226     0.02500
C875        C  0.32457441  0.06102763  0.16850213     0.09400
N876        N  0.28872149  0.99149501  0.17769043     0.65700
H877        H  0.22841687  0.97238399  0.18408485     0.18600
N878        N  0.22674428  0.06850363  0.17483703     0.76200
H879        H  0.27878023  0.07884696  0.16525602     0.10100
C880        C  0.34347954  0.09567139  0.17020830     0.03800
C881        C  0.37441434  0.11505973  0.16533947    -0.04900
C882        C  0.39101889  0.10179389  0.15959151    -0.23300
C883        C  0.37294641  0.06602159  0.15881723     0.13100
C884        C  0.34021906  0.04676368  0.16295058    -0.12400
N885        N  0.33169256  0.11205013  0.17692253     0.64800
H886        H  0.38398875  0.14149784  0.16590140     0.12600
N887        N  0.38530365  0.04849587  0.15291435     0.61400
H888        H  0.32643273  0.02039841  0.16131037     0.08800
O889        O  0.23746981  0.08976837  0.18206379    -0.40100
O890        O  0.21830514  0.07580790  0.16627213    -0.39200
O891        O  0.30329170  0.99395818  0.18628374    -0.39200
O892        O  0.28138608  0.96700515  0.17185578    -0.36900
O893        O  0.39953587  0.03535454  0.15774257    -0.37900
O894        O  0.37165479  0.03627438  0.14422936    -0.34000
O895        O  0.33839603  0.11387917  0.18655921    -0.35400
O896        O  0.32411148  0.13231544  0.17301353    -0.39700
C897        C  0.21802647  0.26914036  0.21372976    -0.13400
C898        C  0.21855571  0.24765027  0.22119747     0.17000
C899        C  0.20632329  0.21431447  0.21862875     0.03300
C900        C  0.19407193  0.20302912  0.20854350    -0.11900
C901        C  0.19286796  0.22422286  0.20077634    -0.03000
C902        C  0.20565453  0.25827757  0.20368025     0.02500
C903        C  0.23263886  0.26148229  0.23153648     0.09400
N904        N  0.20713503  0.19173874  0.22605160     0.65700
H905        H  0.18783002  0.17800874  0.20680916     0.18600
N906        N  0.20692112  0.28274464  0.19657071     0.76200
H907        H  0.22764434  0.29497858  0.21571418     0.10100
C908        C  0.26728450  0.27734873  0.23327990     0.03800
C909        C  0.28080806  0.29539444  0.24244398    -0.04900
C910        C  0.26038474  0.29793184  0.25006535    -0.23300
C911        C  0.22551355  0.28169417  0.24832385     0.13100
C912        C  0.21201788  0.26381940  0.23905990    -0.12400
N913        N  0.28915459  0.27579266  0.22574082     0.64800
H914        H  0.30756474  0.30706882  0.24363875     0.12600
N915        N  0.20352760  0.28366865  0.25570055     0.61400
H916        H  0.18540120  0.25238994  0.23760311     0.08800
O917        O  0.23517037  0.30469595  0.19321926    -0.40100
O918        O  0.18397537  0.28978552  0.19695584    -0.39200
O919        O  0.18068875  0.17190983  0.23086334    -0.39200
O920        O  0.23087058  0.18583133  0.22575236    -0.36900
O921        O  0.19541472  0.30555226  0.25448747    -0.37900
O922        O  0.18632958  0.25930265  0.26167471    -0.34000
O923        O  0.30592721  0.30031500  0.21977793    -0.35400
O924        O  0.29763235  0.25412491  0.22678357    -0.39700
C925        C  0.10052794  0.20557562  0.17557881    -0.13400
C926        C  0.08552181  0.21326837  0.18383583     0.17000
C927        C  0.10268673  0.22220425  0.19347517     0.03300
C928        C  0.13263964  0.22213649  0.19479133    -0.11900
C929        C  0.14925495  0.21572873  0.18660619    -0.03000
C930        C  0.13181684  0.20687694  0.17679331     0.02500
C931        C  0.05238401  0.21221274  0.18260719     0.09400
N932        N  0.08954178  0.23016393  0.20238716     0.65700
H933        H  0.14173453  0.22611106  0.20272759     0.18600
N934        N  0.14392767  0.19681011  0.16811532     0.76200
H935        H  0.08781981  0.19834151  0.16809569     0.10100
C936        C  0.02152102  0.18254355  0.18111183     0.03800
C937        C  0.99081254  0.18178577  0.18270957    -0.04900
C938        C  0.98942784  0.21034816  0.18579380    -0.23300
C939        C  0.02099066  0.24095418  0.18580029     0.13100
C940        C  0.05128132  0.24124524  0.18428565    -0.12400
N941        N  0.02069185  0.15210245  0.17902514     0.64800
H942        H  0.96848032  0.15769676  0.18249111     0.12600
N943        N  0.02364133  0.27214494  0.18817256     0.61400
H944        H  0.07459155  0.26458936  0.18499356     0.08800
O945        O  0.15877537  0.21728535  0.16080355    -0.40100
O946        O  0.13053451  0.16621550  0.16618127    -0.39200
O947        O  0.08041326  0.21082203  0.21017895    -0.39200
O948        O  0.09775227  0.26007004  0.20382576    -0.36900
O949        O  0.03559985  0.28512855  0.19693998    -0.37900
O950        O  0.02656898  0.29111957  0.18066911    -0.34000
O951        O  0.01787137  0.13324997  0.18655312    -0.35400
O952        O  0.01440663  0.14059036  0.16985822    -0.39700
C953        C  0.14135553  0.11651567  0.19309241    -0.13400
C954        C  0.16070720  0.10980198  0.18621519     0.17000
C955        C  0.17999498  0.13397957  0.17866146     0.03300
C956        C  0.18366506  0.16557295  0.17918334    -0.11900
C957        C  0.16946187  0.17475382  0.18736276    -0.03000
C958        C  0.14415264  0.14799658  0.19335759     0.02500
C959        C  0.16255321  0.07892625  0.18749258     0.09400
N960        N  0.19812762  0.12796958  0.17080974     0.65700
H961        H  0.19924763  0.18331491  0.17328749     0.18600
N962        N  0.12152948  0.15215725  0.19988765     0.76200
H963        H  0.12422147  0.09727626  0.19839376     0.10100
C964        C  0.17458437  0.07261471  0.19684010     0.03800
C965        C  0.18098944  0.04639586  0.19740727    -0.04900
C966        C  0.17748728  0.02650429  0.18861218    -0.23300
C967        C  0.15947489  0.02932399  0.17990798     0.13100
C968        C  0.15331666  0.05598600  0.17931809    -0.12400
N969        N  0.18218842  0.09366264  0.20574181     0.64800
H970        H  0.18891585  0.04225366  0.20491901     0.12600
N971        N  0.14770974  0.00586834  0.17152702     0.61400
H972        H  0.14177878  0.05908868  0.17234318     0.08800
O973        O  0.12295207  0.14940628  0.20967965    -0.40100
O974        O  0.09453023  0.14751551  0.19590535    -0.39200
O975        O  0.18579134  0.12018481  0.16173853    -0.39200
O976        O  0.22922308  0.14019210  0.17195504    -0.36900
O977        O  0.11794935  0.98201257  0.17180586    -0.37900
O978        O  0.16283760  0.01375571  0.16287542    -0.34000
O979        O  0.16230995  0.08377080  0.21339838    -0.35400
O980        O  0.21168748  0.11735401  0.20701521    -0.39700
C981        C  0.44005188  0.21227944  0.16256282    -0.13400
C982        C  0.43555404  0.22594305  0.15332110     0.17000
C983        C  0.43588810  0.21120130  0.14378304     0.03300
C984        C  0.43392740  0.18017010  0.14375057    -0.11900
C985        C  0.43250982  0.16300493  0.15312109    -0.03000
C986        C  0.44091851  0.18243764  0.16244896     0.02500
C987        C  0.42936353  0.25457473  0.15372756     0.09400
N988        N  0.44098975  0.22860899  0.13409379     0.65700
H989        H  0.43420786  0.17008910  0.13619345     0.18600
N990        N  0.44914754  0.17181715  0.17195751     0.76200
H991        H  0.44269902  0.22471128  0.16993907     0.10100
C992        C  0.39844221  0.25076012  0.15064641     0.03800
C993        C  0.39323732  0.27798788  0.15085287    -0.04900
C994        C  0.41811603  0.31011345  0.15419194    -0.23300
C995        C  0.44725067  0.31182080  0.15888058     0.13100
C996        C  0.45304532  0.28492101  0.15807193    -0.12400
N997        N  0.37119440  0.21866933  0.14799557     0.64800
H998        H  0.36935206  0.27378677  0.14827342     0.12600
N999        N  0.46926716  0.33828429  0.16563470     0.61400
H1000       H  0.47573746  0.28726135  0.16136125     0.08800
O1001       O  0.42946281  0.16339639  0.17964477    -0.40100
O1002       O  0.47938236  0.18074240  0.17365382    -0.39200
O1003       O  0.47026999  0.25097222  0.13171358    -0.39200
O1004       O  0.41923844  0.21602735  0.12696302    -0.36900
O1005       O  0.45934185  0.33935798  0.17472456    -0.37900
O1006       O  0.50031501  0.35327510  0.16387386    -0.34000
O1007       O  0.36284445  0.21115010  0.13855946    -0.35400
O1008       O  0.35658251  0.19717484  0.15507647    -0.39700
C1009       C  0.31516944  0.30571047  0.15837016    -0.13400
C1010       C  0.31367913  0.30214005  0.16918284     0.17000
C1011       C  0.34446758  0.31263094  0.17450315     0.03300
C1012       C  0.37472493  0.32466591  0.16889251    -0.11900
C1013       C  0.37692523  0.32951504  0.15796009    -0.03000
C1014       C  0.34507008  0.31804334  0.15271359     0.02500
C1015       C  0.27954411  0.28103275  0.17419134     0.09400
N1016       N  0.34582990  0.31140404  0.18566109     0.65700
H1017       H  0.39701112  0.32997531  0.17320548     0.18600
N1018       N  0.34023520  0.31367029  0.14165435     0.76200
H1019       H  0.29205352  0.29547918  0.15398258     0.10100
C1020       C  0.25037387  0.28257424  0.17155953     0.03800
C1021       C  0.21868882  0.25946523  0.17584149    -0.04900
C1022       C  0.21482359  0.23492170  0.18311813    -0.23300
C1023       C  0.24462752  0.23366108  0.18554234     0.13100
C1024       C  0.27524235  0.25546166  0.18084863    -0.12400
N1025       N  0.25245760  0.30847924  0.16501567     0.64800
H1026       H  0.19761767  0.26257095  0.17401625     0.12600
N1027       N  0.24547387  0.21152218  0.19319385     0.61400
H1028       H  0.29610111  0.25182688  0.18248168     0.08800
O1029       O  0.32796916  0.32895082  0.13693906    -0.40100
O1030       O  0.33550787  0.28684754  0.13776654    -0.39200
O1031       O  0.35355472  0.29168411  0.18990575    -0.39200
O1032       O  0.34900017  0.33574655  0.19085737    -0.36900
O1033       O  0.24439739  0.18539369  0.19008259    -0.37900
O1034       O  0.26036424  0.22387597  0.20171687    -0.34000
O1035       O  0.23967779  0.30136536  0.15598417    -0.35400
O1036       O  0.25791656  0.33520990  0.16918858    -0.39700
C1037       C  0.76276506  0.25067640  0.16129388    -0.13400
C1038       C  0.74733156  0.23223683  0.15227361     0.17000
C1039       C  0.76418162  0.24393665  0.14268019     0.03300
C1040       C  0.79539621  0.27313512  0.14227466    -0.11900
C1041       C  0.81118970  0.29276334  0.15122068    -0.03000
C1042       C  0.79470665  0.27925769  0.16100431     0.02500
C1043       C  0.71514548  0.19968731  0.15304323     0.09400
N1044       N  0.75107905  0.22534900  0.13326607     0.65700
H1045       H  0.80781666  0.27858668  0.13482290     0.18600
N1046       N  0.81110531  0.29159557  0.17084215     0.76200
H1047       H  0.75057607  0.24212140  0.16879727     0.10100
C1048       C  0.71077136  0.17510602  0.16036298     0.03800
C1049       C  0.68178151  0.14393617  0.16014600    -0.04900
C1050       C  0.65678754  0.13473746  0.15233807    -0.23300
C1051       C  0.65881962  0.16140480  0.14622603     0.13100
C1052       C  0.68815277  0.19289335  0.14640749    -0.12400
N1053       N  0.73612627  0.18039420  0.16780317     0.64800
H1054       H  0.67986480  0.12659237  0.16612501     0.12600
N1055       N  0.63153523  0.15745255  0.13987666     0.61400
H1056       H  0.68969657  0.21233685  0.14135760     0.08800
O1057       O  0.82446641  0.27672223  0.17515118    -0.40100
O1058       O  0.80191440  0.30734803  0.17661642    -0.39200
O1059       O  0.73813711  0.23528118  0.12650191    -0.39200
O1060       O  0.76011211  0.20504466  0.13061090    -0.36900
O1061       O  0.61003978  0.16289971  0.14398062    -0.37900
O1062       O  0.63493533  0.15984040  0.13006129    -0.34000
O1063       O  0.73155085  0.18402583  0.17731883    -0.35400
O1064       O  0.75733128  0.17208658  0.16546140    -0.39700
C1065       C  0.51483537  0.14033504  0.15345528    -0.13400
C1066       C  0.51175306  0.11441186  0.15974940     0.17000
C1067       C  0.48238776  0.09653452  0.16571781     0.03300
C1068       C  0.45541257  0.10254029  0.16442937    -0.11900
C1069       C  0.45640356  0.12539608  0.15684574    -0.03000
C1070       C  0.48822455  0.14618148  0.15195237     0.02500
C1071       C  0.53783265  0.10443023  0.15871722     0.09400
N1072       N  0.47909926  0.07120943  0.17276732     0.65700
H1073       H  0.43313966  0.08786484  0.16902205     0.18600
N1074       N  0.49354698  0.17156761  0.14459717     0.76200
H1075       H  0.53769248  0.15504314  0.14905567     0.10100
C1076       C  0.54126534  0.09192293  0.14914644     0.03800
C1077       C  0.56931910  0.08904926  0.14713914    -0.04900
C1078       C  0.59474757  0.09624779  0.15467788    -0.23300
C1079       C  0.59018870  0.10758942  0.16461292     0.13100
C1080       C  0.56216525  0.11159465  0.16645318    -0.12400
N1081       N  0.51697088  0.08339242  0.14103542     0.64800
H1082       H  0.57121620  0.08260845  0.13918831     0.12600
N1083       N  0.61493178  0.11813270  0.17267266     0.61400
H1084       H  0.56032633  0.12191675  0.17382401     0.08800
O1085       O  0.49366165  0.16593645  0.13495334    -0.40100
O1086       O  0.50822323  0.20129922  0.14766571    -0.39200
O1087       O  0.47187605  0.04314099  0.16925055    -0.39200
O1088       O  0.48994355  0.07889235  0.18200259    -0.36900
O1089       O  0.63420726  0.14887572  0.17399973    -0.37900
O1090       O  0.60995332  0.09882464  0.18027745    -0.34000
O1091       O  0.52275683  0.10370966  0.13367333    -0.35400
O1092       O  0.49463202  0.05339382  0.13987880    -0.39700
C1093       C  0.70143028  0.96238348  0.24462944    -0.13400
C1094       C  0.68697812  0.96913880  0.23598466     0.17000
C1095       C  0.66207759  0.97747705  0.23771372     0.03300
C1096       C  0.65390910  0.98121037  0.24792286    -0.11900
C1097       C  0.67013054  0.97700654  0.25661090    -0.03000
C1098       C  0.69307020  0.96597826  0.25490375     0.02500
C1099       C  0.70019551  0.97025161  0.22533982     0.09400
N1100       N  0.64649330  0.98467729  0.22924173     0.65700
H1101       H  0.63570873  0.98904182  0.24900339     0.18600
N1102       N  0.70912125  0.95959364  0.26341247     0.76200
H1103       H  0.72014090  0.95532250  0.24338565     0.10100
C1104       C  0.73267894  0.99520400  0.22260019     0.03800
C1105       C  0.74392069  0.99784597  0.21233226    -0.04900
C1106       C  0.72292668  0.97673023  0.20432882    -0.23300
C1107       C  0.69193190  0.94868354  0.20754590     0.13100
C1108       C  0.68063828  0.94628157  0.21789150    -0.12400
N1109       N  0.75455888  0.01869915  0.23013658     0.64800
H1110       H  0.76946291  0.01675623  0.21081947     0.12600
N1111       N  0.67137681  0.92276737  0.20038279     0.61400
H1112       H  0.65624731  0.92589573  0.22006625     0.08800
O1113       O  0.73870164  0.98113176  0.26580515    -0.40100
O1114       O  0.69745524  0.93011066  0.26656367    -0.39200
O1115       O  0.61702282  0.96326583  0.22668504    -0.39200
O1116       O  0.65763763  0.01457175  0.22663816    -0.36900
O1117       O  0.66930583  0.89483320  0.20126593    -0.37900
O1118       O  0.65091862  0.92562712  0.19455335    -0.34000
O1119       O  0.77682159  0.01448481  0.23436264    -0.35400
O1120       O  0.75719373  0.04694319  0.23049779    -0.39700
C1121       C  0.87638831  0.12337785  0.19940777    -0.13400
C1122       C  0.86368715  0.10920371  0.18966705     0.17000
C1123       C  0.88242802  0.12542789  0.18069365     0.03300
C1124       C  0.91257553  0.15577583  0.18160393    -0.11900
C1125       C  0.92554682  0.17151301  0.19134833    -0.03000
C1126       C  0.90590420  0.15416211  0.20051432     0.02500
C1127       C  0.83056104  0.07774745  0.18924862     0.09400
N1128       N  0.87043898  0.11240457  0.17049713     0.65700
H1129       H  0.92562380  0.16797521  0.17446040     0.18600
N1130       N  0.91227940  0.16739016  0.21095306     0.76200
H1131       H  0.86220620  0.11089309  0.20636881     0.10100
C1132       C  0.80163501  0.07590039  0.19343829     0.03800
C1133       C  0.77174687  0.04549572  0.19389057    -0.04900
C1134       C  0.76899407  0.01509735  0.19083226    -0.23300
C1135       C  0.79809974  0.01775970  0.18590183     0.13100
C1136       C  0.82814733  0.04863965  0.18535213    -0.12400
N1137       N  0.80200904  0.10471495  0.19737057     0.64800
H1138       H  0.75046993  0.04571068  0.19714135     0.12600
N1139       N  0.79800678  0.99051959  0.18082553     0.61400
H1140       H  0.85003901  0.04975712  0.18190532     0.08800
O1141       O  0.89914175  0.18404004  0.21378848    -0.40100
O1142       O  0.91807747  0.15196102  0.21802161    -0.39200
O1143       O  0.85406793  0.12269791  0.16538312    -0.39200
O1144       O  0.88324380  0.09792244  0.16572520    -0.36900
O1145       O  0.78997939  0.98546029  0.17128271    -0.37900
O1146       O  0.81542312  0.97917020  0.18464535    -0.34000
O1147       O  0.79207062  0.11990733  0.19152884    -0.35400
O1148       O  0.80289527  0.10897075  0.20713754    -0.39700
C1149       C  0.67021289  0.01179025  0.18442391    -0.13400
C1150       C  0.67304391  0.01378946  0.17358880     0.17000
C1151       C  0.69436176  0.00360704  0.16898985     0.03300
C1152       C  0.71306121  0.99398797  0.17531406    -0.11900
C1153       C  0.70865476  0.98942410  0.18621360    -0.03000
C1154       C  0.68666397  0.99985141  0.19073389     0.02500
C1155       C  0.65896601  0.03242802  0.16775047     0.09400
N1156       N  0.69765272  0.00270919  0.15789352     0.65700
H1157       H  0.73227608  0.99098460  0.17160635     0.18600
N1158       N  0.68209364  0.00207164  0.20171869     0.76200
H1159       H  0.65685081  0.02206187  0.18833256     0.10100
C1160       C  0.62850266  0.03138296  0.17037757     0.03800
C1161       C  0.61947723  0.05299989  0.16545264    -0.04900
C1162       C  0.63899403  0.07495647  0.15742592    -0.23300
C1163       C  0.66894185  0.07468348  0.15463637     0.13100
C1164       C  0.67888972  0.05524560  0.16012730    -0.12400
N1165       N  0.60543571  0.00765779  0.17768206     0.64800
H1166       H  0.59578462  0.05073859  0.16748318     0.12600
N1167       N  0.68982779  0.09331295  0.14602205     0.61400
H1168       H  0.70326315  0.05883467  0.15836851     0.08800
O1169       O  0.65352288  0.98275213  0.20548177    -0.40100
O1170       O  0.70004968  0.02948409  0.20624496    -0.39200
O1171       O  0.72564102  0.02177152  0.15371637    -0.39200
O1172       O  0.67675607  0.97709026  0.15300893    -0.36900
O1173       O  0.71630957  0.12035309  0.14785323    -0.37900
O1174       O  0.68897737  0.07748523  0.13793735    -0.34000
O1175       O  0.60058584  0.01773681  0.18628196    -0.35400
O1176       O  0.58365916  0.97943076  0.17439170    -0.39700
C1177       C  0.72868244  0.56325182  0.15965752    -0.13400
C1178       C  0.72618213  0.53726140  0.15358571     0.17000
C1179       C  0.69562621  0.51623259  0.14857548     0.03300
C1180       C  0.66885113  0.52212775  0.14947509    -0.11900
C1181       C  0.67065572  0.54857069  0.15546765    -0.03000
C1182       C  0.70205973  0.56955037  0.16062326     0.02500
C1183       C  0.75666239  0.53430269  0.15219004     0.09400
N1184       N  0.69089335  0.48818812  0.14271325     0.65700
H1185       H  0.64591670  0.50550388  0.14537230     0.18600
N1186       N  0.70944575  0.59896546  0.16617816     0.76200
H1187       H  0.75236487  0.57996734  0.16339190     0.10100
C1188       C  0.77671383  0.54667370  0.14320628     0.03800
C1189       C  0.80782203  0.54817843  0.14276085    -0.04900
C1190       C  0.82245655  0.54216999  0.15171083    -0.23300
C1191       C  0.80014264  0.52624305  0.16031187     0.13100
C1192       C  0.76808303  0.52283287  0.16045392    -0.12400
N1193       N  0.76806692  0.56214053  0.13506375     0.64800
H1194       H  0.82064846  0.55572003  0.13537526     0.12600
N1195       N  0.80956034  0.51401894  0.16917480     0.61400
H1196       H  0.75257099  0.51249849  0.16734023     0.08800
O1197       O  0.72279258  0.62609945  0.16123185    -0.40100
O1198       O  0.71474370  0.59982403  0.17589456    -0.39200
O1199       O  0.68268413  0.46142932  0.14749837    -0.39200
O1200       O  0.68588121  0.48738858  0.13297834    -0.36900
O1201       O  0.81578559  0.52957223  0.17769552    -0.37900
O1202       O  0.80062149  0.48360661  0.16944672    -0.34000
O1203       O  0.74831974  0.54499321  0.12784976    -0.35400
O1204       O  0.77920590  0.59301094  0.13534323    -0.39700
C1205       C  0.56786316  0.46561271  0.16389823    -0.13400
C1206       C  0.53961081  0.46691596  0.16063060     0.17000
C1207       C  0.54395085  0.49770632  0.15747167     0.03300
C1208       C  0.57623584  0.52584383  0.15699392    -0.11900
C1209       C  0.60562716  0.52383931  0.15864008    -0.03000
C1210       C  0.60057572  0.49329998  0.16310207     0.02500
C1211       C  0.50683926  0.43526940  0.15911894     0.09400
N1212       N  0.51627672  0.49979283  0.15340498     0.65700
H1213       H  0.57856372  0.54867798  0.15398508     0.18600
N1214       N  0.62742913  0.48901785  0.16685865     0.76200
H1215       H  0.56448167  0.44221705  0.16677101     0.10100
C1216       C  0.50369558  0.41315890  0.15123220     0.03800
C1217       C  0.47321889  0.38375475  0.14962113    -0.04900
C1218       C  0.44395344  0.37448582  0.15566444    -0.23300
C1219       C  0.44725319  0.39807255  0.16347629     0.13100
C1220       C  0.47847373  0.42752684  0.16511557    -0.12400
N1221       N  0.53138982  0.42071147  0.14456713     0.64800
H1222       H  0.47256307  0.36744942  0.14350967     0.12600
N1223       N  0.41987311  0.39425032  0.16964332     0.61400
H1224       H  0.48039830  0.44485281  0.17107070     0.08800
O1225       O  0.62777238  0.46281992  0.16469115    -0.40100
O1226       O  0.64706794  0.50795171  0.17381070    -0.39200
O1227       O  0.50612193  0.48998241  0.14421863    -0.39200
O1228       O  0.49859678  0.50576405  0.15949023    -0.36900
O1229       O  0.42032470  0.38935533  0.17935131    -0.37900
O1230       O  0.40349766  0.40748477  0.16644493    -0.34000
O1231       O  0.53972072  0.44253555  0.13752333    -0.35400
O1232       O  0.55072045  0.40990690  0.14684930    -0.39700
C1233       C  0.71172941  0.75631222  0.22127881    -0.13400
C1234       C  0.71316756  0.72885001  0.22501319     0.17000
C1235       C  0.72590378  0.71395397  0.21835874     0.03300
C1236       C  0.73812054  0.72755559  0.20849927    -0.11900
C1237       C  0.73960833  0.75695619  0.20482720    -0.03000
C1238       C  0.72366994  0.76994936  0.21132198     0.02500
C1239       C  0.69856164  0.71459620  0.23545382     0.09400
N1240       N  0.72739327  0.68527670  0.22149678     0.65700
H1241       H  0.74753778  0.71516953  0.20372053     0.18600
N1242       N  0.71565958  0.79426273  0.20784352     0.76200
H1243       H  0.69944249  0.76635385  0.22594761     0.10100
C1244       C  0.70748073  0.73441740  0.24454802     0.03800
C1245       C  0.69261273  0.72022109  0.25417240    -0.04900
C1246       C  0.66929061  0.68622486  0.25505967    -0.23300
C1247       C  0.65985006  0.66650466  0.24591758     0.13100
C1248       C  0.67405836  0.68092302  0.23625602    -0.12400
N1249       N  0.73274449  0.76870077  0.24427540     0.64800
H1250       H  0.70062474  0.73570109  0.26108794     0.12600
N1251       N  0.63584631  0.63180884  0.24623859     0.61400
H1252       H  0.66567677  0.66559890  0.22931894     0.08800
O1253       O  0.72877321  0.82175033  0.21252404    -0.40100
O1254       O  0.68831437  0.78450622  0.20310752    -0.39200
O1255       O  0.70716708  0.65758990  0.21747455    -0.39200
O1256       O  0.75390072  0.68917074  0.22564226    -0.36900
O1257       O  0.60559445  0.62220851  0.24427867    -0.37900
O1258       O  0.64581583  0.61116528  0.24581865    -0.34000
O1259       O  0.72435960  0.79047393  0.24507650    -0.35400
O1260       O  0.76278212  0.77672387  0.24589718    -0.39700
C1261       C  0.84328528  0.79281800  0.18272326    -0.13400
C1262       C  0.85660882  0.78342940  0.19104431     0.17000
C1263       C  0.83990731  0.77535847  0.20070225     0.03300
C1264       C  0.80917235  0.77399503  0.20166410    -0.11900
C1265       C  0.79267922  0.77838678  0.19296245    -0.03000
C1266       C  0.81193296  0.79079927  0.18358028     0.02500
C1267       C  0.88771500  0.78187782  0.18961059     0.09400
N1268       N  0.85402910  0.76887146  0.20973854     0.65700
H1269       H  0.79860588  0.76923670  0.20940903     0.18600
N1270       N  0.79951800  0.80000635  0.17467548     0.76200
H1271       H  0.85665609  0.80051538  0.17536351     0.10100
C1272       C  0.88651427  0.75135316  0.18879282     0.03800
C1273       C  0.91607053  0.75036037  0.18837150    -0.04900
C1274       C  0.94832540  0.77923093  0.18816466    -0.23300
C1275       C  0.94916573  0.81051723  0.18879657     0.13100
C1276       C  0.91896116  0.81103500  0.18948967    -0.12400
N1277       N  0.85538460  0.72083573  0.18805025     0.64800
H1278       H  0.91337456  0.72600416  0.18801526     0.12600
N1279       N  0.97937265  0.84218291  0.18924716     0.61400
H1280       H  0.92000594  0.83468379  0.19019313     0.08800
O1281       O  0.80921063  0.83029068  0.17318859    -0.40100
O1282       O  0.78715864  0.78019244  0.16709628    -0.39200
O1283       O  0.87064361  0.79215220  0.21608444    -0.39200
O1284       O  0.84238730  0.73929047  0.21277994    -0.36900
O1285       O  0.98635185  0.86145064  0.18150945    -0.37900
O1286       O  0.98985038  0.85542586  0.19806442    -0.34000
O1287       O  0.84462337  0.70874768  0.17910511    -0.35400
O1288       O  0.84470064  0.70190314  0.19592442    -0.39700
C1289       C  0.77595370  0.86228975  0.19367201    -0.13400
C1290       C  0.74828605  0.86104654  0.18859087     0.17000
C1291       C  0.72666926  0.83095303  0.18321739     0.03300
C1292       C  0.73197726  0.80365514  0.18374637    -0.11900
C1293       C  0.75530131  0.80283739  0.19075441    -0.03000
C1294       C  0.77837293  0.83381177  0.19547155     0.02500
C1295       C  0.74340627  0.89123022  0.18917679     0.09400
N1296       N  0.69778499  0.82620798  0.17766017     0.65700
H1297       H  0.71578678  0.78245039  0.17904034     0.18600
N1298       N  0.80420840  0.83704509  0.20239654     0.76200
H1299       H  0.79565753  0.88544394  0.19675856     0.10100
C1300       C  0.75531965  0.91332687  0.19779266     0.03800
C1301       C  0.75475001  0.94300909  0.19755631    -0.04900
C1302       C  0.73660018  0.95024009  0.19005674    -0.23300
C1303       C  0.72215654  0.92659284  0.18172466     0.13100
C1304       C  0.72785202  0.89940420  0.18109164    -0.12400
N1305       N  0.76510215  0.90500484  0.20745133     0.64800
H1306       H  0.76704699  0.95987087  0.20399083     0.12600
N1307       N  0.70194184  0.92881354  0.17367159     0.61400
H1308       H  0.71947517  0.88461894  0.17409944     0.08800
O1309       O  0.83438327  0.85383587  0.19958640    -0.40100
O1310       O  0.79745617  0.82806127  0.21182982    -0.39200
O1311       O  0.69793760  0.82564770  0.16778700    -0.39200
O1312       O  0.67010313  0.81306776  0.18237238    -0.36900
O1313       O  0.71341762  0.93531377  0.16447432    -0.37900
O1314       O  0.67063746  0.91314912  0.17485627    -0.34000
O1315       O  0.79490953  0.92262613  0.21055964    -0.35400
O1316       O  0.74270668  0.88832519  0.21411072    -0.39700
C1317       C  0.72038472  0.69125610  0.17527424    -0.13400
C1318       C  0.68638672  0.67969403  0.17554328     0.17000
C1319       C  0.67452036  0.69703469  0.18127387     0.03300
C1320       C  0.69730171  0.72646936  0.18643243    -0.11900
C1321       C  0.73248637  0.73910990  0.18634457    -0.03000
C1322       C  0.74313110  0.71867755  0.18106020     0.02500
C1323       C  0.66441204  0.64706523  0.17074154     0.09400
N1324       N  0.63939080  0.68398760  0.18239086     0.65700
H1325       H  0.68716601  0.73879072  0.19099443     0.18600
N1326       N  0.77477028  0.72074050  0.18258686     0.76200
H1327       H  0.72916879  0.67659013  0.17133710     0.10100
C1328       C  0.65892309  0.64435181  0.15995424     0.03800
C1329       C  0.64683245  0.61354785  0.15510137    -0.04900
C1330       C  0.64410491  0.58557828  0.16056302    -0.23300
C1331       C  0.64443861  0.58775691  0.17175238     0.13100
C1332       C  0.65523750  0.61846850  0.17661590    -0.12400
N1333       N  0.66847677  0.67333865  0.15371787     0.64800
H1334       H  0.64103036  0.61276426  0.14691450     0.12600
N1335       N  0.63347265  0.55948533  0.17843622     0.61400
H1336       H  0.65818453  0.62032508  0.18504839     0.08800
O1337       O  0.79268026  0.72509075  0.17464880    -0.40100
O1338       O  0.77815799  0.70590458  0.19036613    -0.39200
O1339       O  0.62320612  0.68773545  0.17507280    -0.39200
O1340       O  0.62377513  0.66318893  0.18956123    -0.36900
O1341       O  0.65356433  0.55970584  0.18518203    -0.37900
O1342       O  0.60256125  0.54193681  0.18025456    -0.34000
O1343       O  0.64964875  0.68557447  0.15326431    -0.35400
O1344       O  0.69815166  0.69014724  0.15044652    -0.39700
C1345       C  0.85534852  0.34024068  0.12001480    -0.13400
C1346       C  0.88439910  0.33942384  0.11772298     0.17000
C1347       C  0.90394186  0.33897506  0.12608447     0.03300
C1348       C  0.89287703  0.33660369  0.13638172    -0.11900
C1349       C  0.86115995  0.33262808  0.13886893    -0.03000
C1350       C  0.84431110  0.33828056  0.13037347     0.02500
C1351       C  0.89455131  0.34016404  0.10662572     0.09400
N1352       N  0.93473601  0.33971206  0.12428859     0.65700
H1353       H  0.90977111  0.33755992  0.14240594     0.18600
N1354       N  0.81579675  0.34185605  0.13190153     0.76200
H1355       H  0.84123035  0.34291332  0.11368171     0.10100
C1356       C  0.87373912  0.31513051  0.09951021     0.03800
C1357       C  0.88498511  0.31524071  0.08935048    -0.04900
C1358       C  0.91708807  0.33963599  0.08603098    -0.23300
C1359       C  0.93720765  0.36571681  0.09298723     0.13100
C1360       C  0.92571888  0.36582156  0.10313887    -0.12400
N1361       N  0.84209036  0.28800892  0.10268093     0.64800
H1362       H  0.86893802  0.29495679  0.08420157     0.12600
N1363       N  0.96986506  0.39153968  0.09009404     0.61400
H1364       H  0.94161263  0.38574684  0.10841631     0.08800
O1365       O  0.78815688  0.32021775  0.12807131    -0.40100
O1366       O  0.82069787  0.37073799  0.13325649    -0.39200
O1367       O  0.96196114  0.36620827  0.12595634    -0.39200
O1368       O  0.93465953  0.31269130  0.12367177    -0.36900
O1369       O  0.97386603  0.41905490  0.08701537    -0.37900
O1370       O  0.99496770  0.38978107  0.09303844    -0.34000
O1371       O  0.81565759  0.28698785  0.09961167    -0.35400
O1372       O  0.84052834  0.26189694  0.10616054    -0.39700
C1373       C  0.16424412  0.35375941  0.07015737    -0.13400
C1374       C  0.13477865  0.32323258  0.07153827     0.17000
C1375       C  0.13661911  0.29429298  0.07290230     0.03300
C1376       C  0.16754678  0.29594655  0.07217871    -0.11900
C1377       C  0.19701882  0.32615980  0.07008918    -0.03000
C1378       C  0.19529993  0.35554043  0.06945397     0.02500
C1379       C  0.10257322  0.32141894  0.06945066     0.09400
N1380       N  0.10711101  0.26279386  0.07446625     0.65700
H1381       H  0.16824375  0.27314769  0.07289830     0.18600
N1382       N  0.22426227  0.38701359  0.06737005     0.76200
H1383       H  0.16289248  0.37609451  0.06900339     0.10100
C1384       C  0.08388081  0.32531619  0.07737205     0.03800
C1385       C  0.05501829  0.32623182  0.07475241    -0.04900
C1386       C  0.04414217  0.32298932  0.06432209    -0.23300
C1387       C  0.06283788  0.31879340  0.05639346     0.13100
C1388       C  0.09182218  0.31811611  0.05903412    -0.12400
N1389       N  0.09369902  0.32825180  0.08809498     0.64800
H1390       H  0.04076120  0.32899278  0.08096656     0.12600
N1391       N  0.05359187  0.31642022  0.04561323     0.61400
H1392       H  0.10641459  0.31555657  0.05288455     0.08800
O1393       O  0.23776004  0.40736648  0.07476520    -0.40100
O1394       O  0.23085485  0.39732923  0.05804915    -0.39200
O1395       O  0.09462769  0.24312820  0.06685728    -0.39200
O1396       O  0.09836485  0.25190799  0.08365854    -0.36900
O1397       O  0.06653339  0.34233194  0.04003316    -0.37900
O1398       O  0.03953421  0.28841358  0.04122907    -0.34000
O1399       O  0.10714783  0.35639468  0.09237706    -0.35400
O1400       O  0.08098099  0.30257454  0.09377948    -0.39700
C1401       C  0.38412840  0.37297032  0.10263524    -0.13400
C1402       C  0.37253118  0.34533494  0.10933898     0.17000
C1403       C  0.34207690  0.31627483  0.10693280     0.03300
C1404       C  0.32472332  0.31504810  0.09788414    -0.11900
C1405       C  0.33633205  0.34230191  0.09108552    -0.03000
C1406       C  0.36627270  0.37174743  0.09356977     0.02500
C1407       C  0.38997981  0.34864937  0.11940336     0.09400
N1408       N  0.32667060  0.28848314  0.11389101     0.65700
H1409       H  0.30155659  0.29225826  0.09625469     0.18600
N1410       N  0.37831145  0.40085551  0.08723479     0.76200
H1411       H  0.40687683  0.39581279  0.10455798     0.10100
C1412       C  0.40210620  0.32750020  0.12227795     0.03800
C1413       C  0.41167065  0.32691959  0.13263849    -0.04900
C1414       C  0.40827982  0.34628408  0.14048585    -0.23300
C1415       C  0.40200577  0.37183472  0.13696508     0.13100
C1416       C  0.39254451  0.37231070  0.12657285    -0.12400
N1417       N  0.40636934  0.30752924  0.11470585     0.64800
H1418       H  0.42154874  0.31085267  0.13437579     0.12600
N1419       N  0.40214551  0.39578255  0.14391821     0.61400
H1420       H  0.38489294  0.38993008  0.12430309     0.08800
O1421       O  0.40200367  0.40830425  0.08094258    -0.40100
O1422       O  0.37081029  0.42250879  0.08962252    -0.39200
O1423       O  0.30300191  0.28544894  0.11953627    -0.39200
O1424       O  0.32721757  0.26257158  0.11149116    -0.36900
O1425       O  0.42754776  0.42454545  0.14403124    -0.37900
O1426       O  0.37453062  0.39212371  0.14689503    -0.34000
O1427       O  0.43222227  0.32088718  0.10906540    -0.35400
O1428       O  0.39080616  0.27641125  0.11585226    -0.39700
C1429       C  0.32855951  0.15469443  0.06264276    -0.13400
C1430       C  0.29703334  0.14903043  0.05953198     0.17000
C1431       C  0.27224245  0.11680985  0.05657325     0.03300
C1432       C  0.27881882  0.09071470  0.05722086    -0.11900
C1433       C  0.31023666  0.09614832  0.06041043    -0.03000
C1434       C  0.33554060  0.12876612  0.06297699     0.02500
C1435       C  0.29123268  0.17746008  0.05914313     0.09400
N1436       N  0.24118530  0.11052020  0.05217399     0.65700
H1437       H  0.25937716  0.06612849  0.05489819     0.18600
N1438       N  0.36838428  0.13616588  0.06592197     0.76200
H1439       H  0.34798179  0.17952598  0.06476457     0.10100
C1440       C  0.26889902  0.17991641  0.06603903     0.03800
C1441       C  0.26603948  0.20837306  0.06589627    -0.04900
C1442       C  0.28572848  0.23507903  0.05918312    -0.23300
C1443       C  0.30770368  0.23237486  0.05216150     0.13100
C1444       C  0.31015769  0.20364731  0.05218600    -0.12400
N1445       N  0.25090744  0.15504661  0.07379279     0.64800
H1446       H  0.24945929  0.21021864  0.07146121     0.12600
N1447       N  0.32726927  0.25818695  0.04484007     0.61400
H1448       H  0.32732315  0.20194146  0.04683494     0.08800
O1449       O  0.37646560  0.14003914  0.07546958    -0.40100
O1450       O  0.39104494  0.14681019  0.05906831    -0.39200
O1451       O  0.23955038  0.11421541  0.04244184    -0.39200
O1452       O  0.21452035  0.09270245  0.05718147    -0.36900
O1453       O  0.35765346  0.27821832  0.04683497    -0.37900
O1454       O  0.31684946  0.25582346  0.03556732    -0.34000
O1455       O  0.26433825  0.15756795  0.08261011    -0.35400
O1456       O  0.21959031  0.13708714  0.07295538    -0.39700
C1457       C  0.40729359  0.07825229  0.10267686    -0.13400
C1458       C  0.38545444  0.06407121  0.11117112     0.17000
C1459       C  0.35342588  0.03636106  0.10949401     0.03300
C1460       C  0.34333489  0.02420500  0.09937848    -0.11900
C1461       C  0.36464906  0.03904414  0.09079197    -0.03000
C1462       C  0.39727091  0.06595356  0.09253086     0.02500
C1463       C  0.39571429  0.07986928  0.12156547     0.09400
N1464       N  0.33082998  0.02022292  0.11797225     0.65700
H1465       H  0.31830775  0.00334355  0.09822572     0.18600
N1466       N  0.41979735  0.08243572  0.08406995     0.76200
H1467       H  0.43182372  0.09983244  0.10386610     0.10100
C1468       C  0.42364023  0.08262715  0.12677657     0.03800
C1469       C  0.43258437  0.09752669  0.13659843    -0.04900
C1470       C  0.41473391  0.11108508  0.14156919    -0.23300
C1471       C  0.38622049  0.10795545  0.13605526     0.13100
C1472       C  0.37755452  0.09287541  0.12620327    -0.12400
N1473       N  0.44216500  0.06860322  0.12246849     0.64800
H1474       H  0.45280498  0.09640527  0.14038805     0.12600
N1475       N  0.36498225  0.11904528  0.14032243     0.61400
H1476       H  0.35612450  0.09112039  0.12214589     0.08800
O1477       O  0.44281226  0.07615291  0.08229042    -0.40100
O1478       O  0.42161839  0.10817116  0.08014076    -0.39200
O1479       O  0.30657926  0.02500469  0.11924473    -0.39200
O1480       O  0.33005511  0.99545401  0.12228717    -0.36900
O1481       O  0.36636897  0.14466349  0.13645723    -0.37900
O1482       O  0.33806875  0.09786760  0.14463378    -0.34000
O1483       O  0.46954383  0.08726536  0.11791674    -0.35400
O1484       O  0.43514934  0.03978188  0.12521391    -0.39700
C1485       C  0.11497144  0.83292098  0.06882842    -0.13400
C1486       C  0.14044089  0.83099309  0.06356344     0.17000
C1487       C  0.13399427  0.80009273  0.05970940     0.03300
C1488       C  0.10218453  0.77203801  0.06088152    -0.11900
C1489       C  0.07624229  0.77403618  0.06583984    -0.03000
C1490       C  0.08312574  0.80483368  0.07005233     0.02500
C1491       C  0.17372202  0.86139835  0.06246532     0.09400
N1492       N  0.15902245  0.79704104  0.05417719     0.65700
H1493       H  0.09753102  0.74874341  0.05757296     0.18600
N1494       N  0.05857617  0.80792393  0.07587686     0.76200
H1495       H  0.11995548  0.85638952  0.07208760     0.10100
C1496       C  0.17790207  0.88847151  0.05637850     0.03800
C1497       C  0.20879915  0.91798749  0.05621691    -0.04900
C1498       C  0.23612152  0.92143722  0.06208027    -0.23300
C1499       C  0.23196619  0.89411035  0.06813014     0.13100
C1500       C  0.20097686  0.86438506  0.06820932    -0.12400
N1501       N  0.15100169  0.88631195  0.05025316     0.64800
H1502       H  0.21129632  0.93844114  0.05147222     0.12600
N1503       N  0.25813977  0.89659208  0.07470206     0.61400
H1504       H  0.19783221  0.84390226  0.07307452     0.08800
O1505       O  0.04372638  0.82141550  0.07164058    -0.40100
O1506       O  0.05803519  0.80506503  0.08571047    -0.39200
O1507       O  0.17365889  0.78373189  0.05866980    -0.39200
O1508       O  0.16045307  0.79996470  0.04434364    -0.36900
O1509       O  0.25896109  0.90436259  0.08418650    -0.37900
O1510       O  0.27481495  0.88344277  0.07181605    -0.34000
O1511       O  0.13499067  0.89973971  0.05353254    -0.35400
O1512       O  0.14840399  0.87793868  0.04077186    -0.39700
C1513       C  0.92257893  0.59623453  0.10378147    -0.13400
C1514       C  0.93018989  0.61704793  0.11252126     0.17000
C1515       C  0.95439295  0.65098582  0.11144778     0.03300
C1516       C  0.96868212  0.66362049  0.10166437    -0.11900
C1517       C  0.96003802  0.64318280  0.09281012    -0.03000
C1518       C  0.93743000  0.60884004  0.09401296     0.02500
C1519       C  0.91388300  0.60201131  0.12269352     0.09400
N1520       N  0.96595997  0.67287075  0.12021763     0.65700
H1521       H  0.98657126  0.68993921  0.10099893     0.18600
N1522       N  0.92866122  0.58646786  0.08542550     0.76200
H1523       H  0.90468293  0.56993907  0.10453057     0.10100
C1524       C  0.89494480  0.61250006  0.12836881     0.03800
C1525       C  0.87984122  0.59670725  0.13777747    -0.04900
C1526       C  0.87964831  0.56786174  0.14145863    -0.23300
C1527       C  0.90108289  0.55903094  0.13590192     0.13100
C1528       C  0.91702834  0.57579782  0.12666301    -0.12400
N1529       N  0.88809282  0.63707641  0.12432507     0.64800
H1530       H  0.86637313  0.60625695  0.14204193     0.12600
N1531       N  0.91005975  0.53557529  0.13965782     0.61400
H1532       H  0.93281713  0.56851962  0.12259103     0.08800
O1533       O  0.90124045  0.57675335  0.08074742    -0.40100
O1534       O  0.94377432  0.57051385  0.08428812    -0.39200
O1535       O  0.98931427  0.67432190  0.12573473    -0.39200
O1536       O  0.96099047  0.69709299  0.12033585    -0.36900
O1537       O  0.90114227  0.50970752  0.13434375    -0.37900
O1538       O  0.93575614  0.54593698  0.14533235    -0.34000
O1539       O  0.86438375  0.62816466  0.11788228    -0.35400
O1540       O  0.89761123  0.66338320  0.12945943    -0.39700
C1541       C  0.78900080  0.70131944  0.06804401    -0.13400
C1542       C  0.79376397  0.67676005  0.06346612     0.17000
C1543       C  0.76624891  0.64854713  0.05910290     0.03300
C1544       C  0.73478469  0.64555466  0.05919729    -0.11900
C1545       C  0.72969866  0.67001054  0.06371957    -0.03000
C1546       C  0.75722149  0.69808681  0.06830827     0.02500
C1547       C  0.82705544  0.67980630  0.06389733     0.09400
N1548       N  0.76984585  0.62274846  0.05444704     0.65700
H1549       H  0.71414590  0.62371859  0.05566855     0.18600
N1550       N  0.75330096  0.72270102  0.07367107     0.76200
H1551       H  0.80988808  0.72263310  0.07170564     0.10100
C1552       C  0.85518487  0.70673365  0.05919717     0.03800
C1553       C  0.88635933  0.70902255  0.05994891    -0.04900
C1554       C  0.88990160  0.68438984  0.06510281    -0.23300
C1555       C  0.86173606  0.65738585  0.06982000     0.13100
C1556       C  0.83073331  0.65558039  0.06928604    -0.12400
N1557       N  0.85220793  0.73099399  0.05317340     0.64800
H1558       H  0.90767044  0.72956491  0.05613613     0.12600
N1559       N  0.86424060  0.63201440  0.07536208     0.61400
H1560       H  0.80940639  0.63518989  0.07313750     0.08800
O1561       O  0.76343505  0.75058173  0.06937602    -0.40100
O1562       O  0.74838945  0.71989348  0.08342376    -0.39200
O1563       O  0.75993801  0.59589512  0.05938824    -0.39200
O1564       O  0.77488604  0.62358097  0.04472874    -0.36900
O1565       O  0.87012661  0.63508689  0.08506569    -0.37900
O1566       O  0.85328473  0.60396449  0.07117301    -0.34000
O1567       O  0.86401097  0.75994051  0.05675015    -0.35400
O1568       O  0.84562826  0.72601085  0.04353661    -0.39700
C1569       C  0.61383171  0.56084369  0.10222383    -0.13400
C1570       C  0.61914769  0.58069452  0.11103979     0.17000
C1571       C  0.62047843  0.61137264  0.10982971     0.03300
C1572       C  0.61772494  0.62218980  0.09989395    -0.11900
C1573       C  0.61393009  0.60319723  0.09097204    -0.03000
C1574       C  0.61119905  0.57178765  0.09221095     0.02500
C1575       C  0.62598613  0.57068018  0.12132495     0.09400
N1576       N  0.62519751  0.63217920  0.11860606     0.65700
H1577       H  0.61964243  0.64624980  0.09915696     0.18600
N1578       N  0.60785626  0.55160785  0.08340591     0.76200
H1579       H  0.61326209  0.53743917  0.10304979     0.10100
C1580       C  0.60288664  0.54111869  0.12631941     0.03800
C1581       C  0.60913306  0.53465107  0.13650053    -0.04900
C1582       C  0.63725731  0.55822877  0.14232168    -0.23300
C1583       C  0.66329480  0.58457191  0.13630530     0.13100
C1584       C  0.65679360  0.59101176  0.12612386    -0.12400
N1585       N  0.57223871  0.51793186  0.12135994     0.64800
H1586       H  0.59109744  0.51088825  0.13974692     0.12600
N1587       N  0.69614707  0.60589451  0.14033794     0.61400
H1588       H  0.67604211  0.61233413  0.12192936     0.08800
O1589       O  0.57957688  0.52698247  0.08128478    -0.40100
O1590       O  0.63368970  0.55355880  0.07943342    -0.39200
O1591       O  0.65353094  0.65749523  0.12014144    -0.39200
O1592       O  0.59993295  0.63009736  0.12304843    -0.36900
O1593       O  0.70606335  0.63638678  0.14132826    -0.37900
O1594       O  0.71783868  0.59752675  0.13894685    -0.34000
O1595       O  0.56925957  0.49164508  0.11757807    -0.35400
O1596       O  0.54636571  0.51971736  0.12302683    -0.39700
C1597       C  0.86247040  0.15941394  0.06585479    -0.13400
C1598       C  0.83758400  0.14893271  0.05814809     0.17000
C1599       C  0.84155442  0.17061552  0.04984264     0.03300
C1600       C  0.86890631  0.20281139  0.04971906    -0.11900
C1601       C  0.89235196  0.21452790  0.05789652    -0.03000
C1602       C  0.88972853  0.19204143  0.06583974     0.02500
C1603       C  0.80495434  0.11844894  0.05986359     0.09400
N1604       N  0.81668673  0.16112974  0.04186109     0.65700
H1605       H  0.87046648  0.21935557  0.04347765     0.18600
N1606       N  0.91333861  0.20218074  0.07422033     0.76200
H1607       H  0.85951903  0.14300737  0.07231466     0.10100
C1608       C  0.80080621  0.08638881  0.05989465     0.03800
C1609       C  0.76871143  0.05862151  0.06101145    -0.04900
C1610       C  0.74060978  0.06230299  0.06228143    -0.23300
C1611       C  0.74534306  0.09463212  0.06295096     0.13100
C1612       C  0.77724684  0.12215083  0.06171477    -0.12400
N1613       N  0.82866379  0.08152289  0.05864860     0.64800
H1614       H  0.76576766  0.03407742  0.06071772     0.12600
N1615       N  0.71829659  0.10019564  0.06507528     0.61400
H1616       H  0.78044849  0.14677963  0.06222580     0.08800
O1617       O  0.93598991  0.19471636  0.07392871    -0.40100
O1618       O  0.90659072  0.21063103  0.08281801    -0.39200
O1619       O  0.79591446  0.17103480  0.04239470    -0.39200
O1620       O  0.82078324  0.15057509  0.03325171    -0.36900
O1621       O  0.71261158  0.10454499  0.07440904    -0.37900
O1622       O  0.70609667  0.10887131  0.05770493    -0.34000
O1623       O  0.84073313  0.07518842  0.06660701    -0.35400
O1624       O  0.83527005  0.07519833  0.04968246    -0.39700
C1625       C  0.63294700  0.83781781  0.07131044    -0.13400
C1626       C  0.60598569  0.81529756  0.06514585     0.17000
C1627       C  0.58484884  0.82520142  0.06048715     0.03300
C1628       C  0.59184482  0.85788104  0.06167198    -0.11900
C1629       C  0.61991278  0.88105450  0.06737207    -0.03000
C1630       C  0.64005235  0.87051735  0.07249305     0.02500
C1631       C  0.60206014  0.78237554  0.06332447     0.09400
N1632       N  0.55687306  0.80275820  0.05427607     0.65700
H1633       H  0.57609590  0.86552271  0.05769281     0.18600
N1634       N  0.66742471  0.89240850  0.07902757     0.76200
H1635       H  0.64897052  0.83008418  0.07506074     0.10100
C1636       C  0.62084225  0.77835630  0.05546135     0.03800
C1637       C  0.62387147  0.75010466  0.05543056    -0.04900
C1638       C  0.60803990  0.72528381  0.06305644    -0.23300
C1639       C  0.58709039  0.72808853  0.07047479     0.13100
C1640       C  0.58453111  0.75681290  0.07060757    -0.12400
N1641       N  0.63853491  0.80365365  0.04780252     0.64800
H1642       H  0.63949286  0.74799775  0.04954825     0.12600
N1643       N  0.57058533  0.70352965  0.07842663     0.61400
H1644       H  0.57033657  0.75998576  0.07675241     0.08800
O1645       O  0.69692425  0.90415132  0.07572910    -0.40100
O1646       O  0.66253877  0.89307113  0.08870816    -0.39200
O1647       O  0.52793334  0.78948331  0.05816033    -0.39200
O1648       O  0.56009127  0.80276816  0.04447790    -0.36900
O1649       O  0.58511445  0.70658069  0.08707083    -0.37900
O1650       O  0.53949299  0.68378834  0.07774389    -0.34000
O1651       O  0.66967988  0.82265351  0.04876172    -0.35400
O1652       O  0.62481490  0.80198677  0.03910009    -0.39700
C1653       C  0.60462298  0.03864367  0.10171398    -0.13400
C1654       C  0.62129398  0.03611602  0.11052259     0.17000
C1655       C  0.63623913  0.01634248  0.11008297     0.03300
C1656       C  0.63619350  0.00121014  0.10069906    -0.11900
C1657       C  0.62098862  0.00492062  0.09166039    -0.03000
C1658       C  0.60393457  0.02286218  0.09233167     0.02500
C1659       C  0.62148626  0.05282515  0.12029384     0.09400
N1660       N  0.65227061  0.01199999  0.11903214     0.65700
H1661       H  0.64897593  0.98713959  0.10045177     0.18600
N1662       N  0.58609796  0.02561647  0.08361059     0.76200
H1663       H  0.59205828  0.05289827  0.10213928     0.10100
C1664       C  0.64364116  0.08679037  0.12185464     0.03800
C1665       C  0.64488274  0.10117421  0.13155203    -0.04900
C1666       C  0.62380008  0.08249153  0.13993797    -0.23300
C1667       C  0.60035821  0.04797258  0.13794747     0.13100
C1668       C  0.59979493  0.03396128  0.12826923    -0.12400
N1669       N  0.66684217  0.10660666  0.11390560     0.64800
H1670       H  0.66473743  0.12639751  0.13257958     0.12600
N1671       N  0.57744983  0.02605088  0.14569444     0.61400
H1672       H  0.58248552  0.00774198  0.12702850     0.08800
O1673       O  0.59878569  0.05236636  0.07845343    -0.40100
O1674       O  0.55524122  0.00507228  0.08272053    -0.39200
O1675       O  0.63738317  0.98517635  0.12414211    -0.39200
O1676       O  0.68340959  0.03062206  0.12016009    -0.36900
O1677       O  0.54772447  0.02023175  0.14549863    -0.37900
O1678       O  0.58273854  0.00421416  0.14960829    -0.34000
O1679       O  0.66121898  0.12603449  0.10852627    -0.35400
O1680       O  0.69582799  0.11044330  0.11397525    -0.39700
C1681       C  0.20712791  0.83807442  0.72176397    -0.13400
C1682       C  0.17891184  0.83369651  0.71624534     0.17000
C1683       C  0.18005264  0.86172470  0.71151593     0.03300
C1684       C  0.20795413  0.89330298  0.71297896    -0.11900
C1685       C  0.23540972  0.89794868  0.71899394    -0.03000
C1686       C  0.23540848  0.86965429  0.72302903     0.02500
C1687       C  0.14719803  0.80110180  0.71687256     0.09400
N1688       N  0.15287550  0.85876562  0.70533692     0.65700
H1689       H  0.20762792  0.91446358  0.70957143     0.18600
N1690       N  0.26337702  0.87238486  0.72866655     0.76200
H1691       H  0.20669139  0.81713691  0.72561103     0.10100
C1692       C  0.14550739  0.77058817  0.71471081     0.03800
C1693       C  0.11566319  0.74060361  0.71642917    -0.04900
C1694       C  0.08705108  0.74009892  0.72025968    -0.23300
C1695       C  0.08872858  0.77059302  0.72239672     0.13100
C1696       C  0.11862511  0.80047465  0.72079629    -0.12400
N1697       N  0.17364384  0.76939734  0.71071136     0.64800
H1698       H  0.11492809  0.71752350  0.71470903     0.12600
N1699       N  0.06085932  0.77186087  0.72660328     0.61400
H1700       H  0.11976088  0.82338050  0.72301939     0.08800
O1701       O  0.28400293  0.86693565  0.72394720    -0.40100
O1702       O  0.26264839  0.87157951  0.73853570    -0.39200
O1703       O  0.13444112  0.86899309  0.70900448    -0.39200
O1704       O  0.15328511  0.85504431  0.69557872    -0.36900
O1705       O  0.05899002  0.77449201  0.73636551    -0.37900
O1706       O  0.04337935  0.77863112  0.72060703    -0.34000
O1707       O  0.18949305  0.76062698  0.71673314    -0.35400
O1708       O  0.17628749  0.76752909  0.70095156    -0.39700
C1709       C  0.45085381  0.00938235  0.73640148    -0.13400
C1710       C  0.45753115  0.99421441  0.72801753     0.17000
C1711       C  0.43411685  0.98069553  0.71978865     0.03300
C1712       C  0.40490765  0.98240972  0.72006476    -0.11900
C1713       C  0.39798885  0.99748353  0.72840530    -0.03000
C1714       C  0.42144598  0.01118544  0.73667131     0.02500
C1715       C  0.48789325  0.99092173  0.72821886     0.09400
N1716       N  0.43985761  0.96570119  0.71092855     0.65700
H1717       H  0.38754455  0.97187470  0.71358402     0.18600
N1718       N  0.41555323  0.02608089  0.74552607     0.76200
H1719       H  0.46818639  0.01919156  0.74290878     0.10100
C1720       C  0.52035642  0.01874461  0.72904655     0.03800
C1721       C  0.54824948  0.01451070  0.72912900    -0.04900
C1722       C  0.54470829  0.98284524  0.72839484    -0.23300
C1723       C  0.51204511  0.95488893  0.72773062     0.13100
C1724       C  0.48419399  0.95920586  0.72770070    -0.12400
N1725       N  0.52558160  0.05161711  0.72944438     0.64800
H1726       H  0.57292301  0.03633388  0.72966547     0.12600
N1727       N  0.50647024  0.92193842  0.72692267     0.61400
H1728       H  0.45940129  0.93750347  0.72729822     0.08800
O1729       O  0.43058920  0.05731010  0.74617123    -0.40100
O1730       O  0.40276664  0.00883777  0.75365475    -0.39200
O1731       O  0.42330098  0.93453713  0.71000264    -0.39200
O1732       O  0.45394765  0.98332842  0.70297041    -0.36900
O1733       O  0.49895645  0.90406468  0.73503605    -0.37900
O1734       O  0.50054870  0.90833118  0.71805467    -0.34000
O1735       O  0.53321638  0.06688580  0.73804569    -0.35400
O1736       O  0.53050489  0.06775371  0.72104209    -0.39700
C1737       C  0.63051870  0.79221754  0.72219600    -0.13400
C1738       C  0.60056636  0.78517773  0.72699521     0.17000
C1739       C  0.57886630  0.75297787  0.73081532     0.03300
C1740       C  0.58828977  0.72882576  0.73021314    -0.11900
C1741       C  0.61895767  0.73623944  0.72573315    -0.03000
C1742       C  0.63972642  0.76813891  0.72141479     0.02500
C1743       C  0.59339989  0.81248836  0.72769146     0.09400
N1744       N  0.54688147  0.74410004  0.73499628     0.65700
H1745       H  0.57169774  0.70430559  0.73338278     0.18600
N1746       N  0.66923735  0.77617205  0.71566315     0.76200
H1747       H  0.64696456  0.81675709  0.71899035     0.10100
C1748       C  0.59753330  0.82940219  0.73716855     0.03800
C1749       C  0.60060178  0.86075303  0.73703249    -0.04900
C1750       C  0.60025309  0.87596950  0.72756708    -0.23300
C1751       C  0.59373714  0.85796045  0.71815165     0.13100
C1752       C  0.59019813  0.82639692  0.71832428    -0.12400
N1753       N  0.60199842  0.81673531  0.74686382     0.64800
H1754       H  0.60527350  0.87403153  0.74435024     0.12600
N1755       N  0.59377733  0.87234565  0.70825018     0.61400
H1756       H  0.58754532  0.81373472  0.71098500     0.08800
O1757       O  0.69711294  0.79046089  0.72029828    -0.40100
O1758       O  0.66854690  0.77873224  0.70584663    -0.39200
O1759       O  0.52195648  0.73231324  0.72893583    -0.39200
O1760       O  0.54212384  0.73950860  0.74472151    -0.36900
O1761       O  0.62025791  0.88600574  0.70290656    -0.37900
O1762       O  0.56629656  0.86425661  0.70384475    -0.34000
O1763       O  0.63129156  0.82634238  0.75005715    -0.35400
O1764       O  0.57825932  0.80441654  0.75334953    -0.39700
C1765       C  0.45346042  0.47192495  0.73460151    -0.13400
C1766       C  0.48104467  0.47245792  0.72990994     0.17000
C1767       C  0.47798537  0.44233598  0.72652982     0.03300
C1768       C  0.44714150  0.41273830  0.72730864    -0.11900
C1769       C  0.41903118  0.41240015  0.73153289    -0.03000
C1770       C  0.42277240  0.44226710  0.73557010     0.02500
C1771       C  0.51264649  0.50475963  0.72872215     0.09400
N1772       N  0.50557601  0.44153395  0.72191488     0.65700
H1773       H  0.44497869  0.39008243  0.72428171     0.18600
N1774       N  0.39618395  0.44277692  0.74104085     0.76200
H1775       H  0.45585766  0.49472097  0.73759636     0.10100
C1776       C  0.51418402  0.52984214  0.72215956     0.03800
C1777       C  0.54308874  0.56121116  0.72190560    -0.04900
C1778       C  0.57102321  0.56866426  0.72817252    -0.23300
C1779       C  0.56964484  0.54322239  0.73464989     0.13100
C1780       C  0.54065451  0.51161330  0.73481336    -0.12400
N1781       N  0.48649801  0.52383958  0.71567526     0.64800
H1782       H  0.54337447  0.58002710  0.71682638     0.12600
N1783       N  0.59674227  0.54917075  0.74140466     0.61400
H1784       H  0.53959691  0.49264793  0.74000011     0.08800
O1785       O  0.37982852  0.45425913  0.73655341    -0.40100
O1786       O  0.39443952  0.43926873  0.75085941    -0.39200
O1787       O  0.52176392  0.43165292  0.72731838    -0.39200
O1788       O  0.50836856  0.44269975  0.71208426    -0.36900
O1789       O  0.59652514  0.55764883  0.75075054    -0.37900
O1790       O  0.61543271  0.53784854  0.73895076    -0.34000
O1791       O  0.46829272  0.53559672  0.71826461    -0.35400
O1792       O  0.48504656  0.51380291  0.70643581    -0.39700
C1793       C  0.14278545  0.34903355  0.73639714    -0.13400
C1794       C  0.14762265  0.33023093  0.72883241     0.17000
C1795       C  0.12168466  0.31086112  0.72176876     0.03300
C1796       C  0.09143704  0.31037513  0.72241224    -0.11900
C1797       C  0.08627529  0.32893999  0.73000731    -0.03000
C1798       C  0.11244061  0.34863208  0.73704670     0.02500
C1799       C  0.17887654  0.32916040  0.72891570     0.09400
N1800       N  0.12575395  0.29179145  0.71381057     0.65700
H1801       H  0.07181625  0.29518387  0.71690258     0.18600
N1802       N  0.10844602  0.36746745  0.74509878     0.76200
H1803       H  0.16234320  0.36337763  0.74202563     0.10100
C1804       C  0.21023298  0.35813052  0.72770035     0.03800
C1805       C  0.23921542  0.35610497  0.72801723    -0.04900
C1806       C  0.23772777  0.32563633  0.72965757    -0.23300
C1807       C  0.20629865  0.29668221  0.73117745     0.13100
C1808       C  0.17724664  0.29872962  0.73074846    -0.12400
N1809       N  0.21314077  0.38977018  0.72600606     0.64800
H1810       H  0.26305332  0.37865091  0.72689375     0.12600
N1811       N  0.20334449  0.26531131  0.73351407     0.61400
H1812       H  0.15327962  0.27651888  0.73207955     0.08800
O1813       O  0.12079479  0.39831375  0.74384019    -0.40100
O1814       O  0.10046212  0.35528417  0.75418506    -0.39200
O1815       O  0.11200390  0.26073686  0.71491654    -0.39200
O1816       O  0.13537920  0.30438937  0.70483804    -0.36900
O1817       O  0.20274033  0.25691498  0.74295154    -0.37900
O1818       O  0.19340738  0.24343475  0.72649026    -0.34000
O1819       O  0.22266125  0.41022908  0.73344978    -0.35400
O1820       O  0.21492372  0.40012666  0.71675745    -0.39700
C1821       C  0.01346900  0.51870282  0.72716916    -0.13400
C1822       C  0.98375505  0.49259008  0.73129409     0.17000
C1823       C  0.95818778  0.49879102  0.73435514     0.03300
C1824       C  0.96273209  0.53069840  0.73315104    -0.11900
C1825       C  0.99260353  0.55697131  0.72908338    -0.03000
C1826       C  0.01821589  0.55063988  0.72608263     0.02500
C1827       C  0.98149606  0.45996494  0.73277381     0.09400
N1828       N  0.92821566  0.47363016  0.73917876     0.65700
H1829       H  0.94290071  0.53503132  0.73561766     0.18600
N1830       N  0.04901891  0.57601993  0.72174683     0.76200
H1831       H  0.03332311  0.51425540  0.72480018     0.10100
C1832       C  0.95859018  0.43144964  0.72715466     0.03800
C1833       C  0.95995914  0.40224089  0.72807765    -0.04900
C1834       C  0.98490979  0.40127456  0.73406499    -0.23300
C1835       C  0.00798523  0.42984461  0.73961408     0.13100
C1836       C  0.00563282  0.45856475  0.73909168    -0.12400
N1837       N  0.93621408  0.43255205  0.71965093     0.64800
H1838       H  0.94274390  0.38081178  0.72350399     0.12600
N1839       N  0.03430832  0.43041575  0.74565142     0.61400
H1840       H  0.02367252  0.48043808  0.74333042     0.08800
O1841       O  0.05267043  0.57794133  0.71194173    -0.40100
O1842       O  0.07455901  0.59008553  0.72753615    -0.39200
O1843       O  0.92727707  0.47092845  0.74901798    -0.39200
O1844       O  0.90106898  0.46170325  0.73417052    -0.36900
O1845       O  0.06312211  0.44282678  0.74171369    -0.37900
O1846       O  0.03086814  0.42610452  0.75542242    -0.34000
O1847       O  0.94666125  0.44227083  0.71047456    -0.35400
O1848       O  0.90513568  0.41511513  0.72118061    -0.39700
C1849       C  0.27144340  0.04066247  0.76992374    -0.13400
C1850       C  0.24902008  0.01073949  0.77492347     0.17000
C1851       C  0.23716044  0.98066776  0.76957029     0.03300
C1852       C  0.24899110  0.98056925  0.75958912    -0.11900
C1853       C  0.27254413  0.01014410  0.75461801    -0.03000
C1854       C  0.28300712  0.04066742  0.75974924     0.02500
C1855       C  0.23827795  0.01039931  0.78579836     0.09400
N1856       N  0.21345573  0.94979878  0.77426866     0.65700
H1857       H  0.23985408  0.95682944  0.75577822     0.18600
N1858       N  0.30532504  0.07167760  0.75485753     0.76200
H1859       H  0.28015261  0.06398315  0.77395917     0.10100
C1860       C  0.25639805  0.00822597  0.79424173     0.03800
C1861       C  0.24273494  0.00188122  0.80428076    -0.04900
C1862       C  0.20989910  0.99577172  0.80625090    -0.23300
C1863       C  0.19473142  0.00392442  0.79782679     0.13100
C1864       C  0.20825173  0.00952606  0.78770937    -0.12400
N1865       N  0.28845757  0.01148316  0.79272208     0.64800
H1866       H  0.25836038  0.00123947  0.81046709     0.12600
N1867       N  0.16596266  0.00716431  0.79923144     0.61400
H1868       H  0.19506656  0.01309972  0.78126817     0.08800
O1869       O  0.33583693  0.08674565  0.75737659    -0.40100
O1870       O  0.29344543  0.08741822  0.75022192    -0.39200
O1871       O  0.18297091  0.93674772  0.77183993    -0.39200
O1872       O  0.22365684  0.93235807  0.77873669    -0.36900
O1873       O  0.17072694  0.03566770  0.80122303    -0.37900
O1874       O  0.13910685  0.98679567  0.79469845    -0.34000
O1875       O  0.31438539  0.03850528  0.79501687    -0.35400
O1876       O  0.29053021  0.98575960  0.79150898    -0.39700
C1877       C  0.29971591  0.94666099  0.84470767    -0.13400
C1878       C  0.26565948  0.93034388  0.84213769     0.17000
C1879       C  0.24659684  0.89612238  0.84435749     0.03300
C1880       C  0.26107462  0.87962791  0.84939024    -0.11900
C1881       C  0.29408602  0.89643689  0.85351142    -0.03000
C1882       C  0.31425649  0.93029708  0.85008829     0.02500
C1883       C  0.25094087  0.94735023  0.83584270     0.09400
N1884       N  0.21169172  0.87762486  0.84192066     0.65700
H1885       H  0.24490046  0.85326627  0.85025312     0.18600
N1886       N  0.34957668  0.94883267  0.85170519     0.76200
H1887       H  0.31548054  0.97230090  0.84232568     0.10100
C1888       C  0.25048872  0.97603273  0.83913639     0.03800
C1889       C  0.23286290  0.98825543  0.83328651    -0.04900
C1890       C  0.21543679  0.97269868  0.82395228    -0.23300
C1891       C  0.21761523  0.94451544  0.82057036     0.13100
C1892       C  0.23547387  0.93305552  0.82636652    -0.12400
N1893       N  0.26680899  0.99252436  0.84858524     0.64800
H1894       H  0.23187122  0.00918959  0.83641943     0.12600
N1895       N  0.20138568  0.92628162  0.81130463     0.61400
H1896       H  0.23661164  0.91187306  0.82345573     0.08800
O1897       O  0.36197587  0.97676844  0.85609209    -0.40100
O1898       O  0.36790923  0.94385441  0.84558960    -0.39200
O1899       O  0.20146323  0.85604901  0.83479561    -0.39200
O1900       O  0.19093905  0.87755003  0.84830136    -0.36900
O1901       O  0.17555678  0.89807525  0.81236349    -0.37900
O1902       O  0.21857925  0.93185742  0.80311671    -0.34000
O1903       O  0.29473719  0.01900831  0.84806198    -0.35400
O1904       O  0.25010046  0.98558518  0.85692968    -0.39700
C1905       C  0.29287957  0.28101224  0.77698665    -0.13400
C1906       C  0.26978711  0.24687604  0.77719189     0.17000
C1907       C  0.26407113  0.22841987  0.76793366     0.03300
C1908       C  0.28061067  0.24446664  0.75863820    -0.11900
C1909       C  0.30266917  0.27896771  0.75830594    -0.03000
C1910       C  0.30913449  0.29717119  0.76771814     0.02500
C1911       C  0.25098679  0.23206709  0.78706690     0.09400
N1912       N  0.24146262  0.19343172  0.76780223     0.65700
H1913       H  0.27510339  0.22995765  0.75155241     0.18600
N1914       N  0.33121253  0.33229620  0.76799722     0.76200
H1915       H  0.29744568  0.29554627  0.78403086     0.10100
C1916       C  0.26761061  0.23162494  0.79618958     0.03800
C1917       C  0.25081372  0.22309327  0.80572806    -0.04900
C1918       C  0.21746041  0.21599074  0.80694420    -0.23300
C1919       C  0.19979829  0.21351016  0.79739915     0.13100
C1920       C  0.21700391  0.22213775  0.78773907    -0.12400
N1921       N  0.30206259  0.24079600  0.79598464     0.64800
H1922       H  0.26521089  0.22415810  0.81253189     0.12600
N1923       N  0.16456201  0.20099217  0.79696404     0.61400
H1924       H  0.20369624  0.22162204  0.78067327     0.08800
O1925       O  0.36041411  0.34369733  0.77156457    -0.40100
O1926       O  0.31927278  0.35126951  0.76715786    -0.39200
O1927       O  0.21281569  0.18235914  0.76382260    -0.39200
O1928       O  0.25279524  0.17409230  0.76909602    -0.36900
O1929       O  0.15455260  0.22032250  0.79394709    -0.37900
O1930       O  0.14532447  0.17022959  0.79569443    -0.34000
O1931       O  0.32379778  0.26912161  0.79922961    -0.35400
O1932       O  0.30955094  0.21836141  0.79525470    -0.39700
C1933       C  0.17119366  0.05306234  0.82502958    -0.13400
C1934       C  0.20219337  0.08204454  0.82361889     0.17000
C1935       C  0.23046049  0.07840774  0.82245864     0.03300
C1936       C  0.22672706  0.04656094  0.82187392    -0.11900
C1937       C  0.19505987  0.01691322  0.82185738    -0.03000
C1938       C  0.16674623  0.02103142  0.82384527     0.02500
C1939       C  0.20356649  0.11508466  0.82277569     0.09400
N1940       N  0.26305854  0.10661573  0.82103528     0.65700
H1941       H  0.24905025  0.04519828  0.82048663     0.18600
N1942       N  0.13274599  0.99434914  0.82372317     0.76200
H1943       H  0.14935228  0.05525431  0.82644055     0.10100
C1944       C  0.18213307  0.11938391  0.81590738     0.03800
C1945       C  0.18302493  0.14970818  0.81539746    -0.04900
C1946       C  0.20435446  0.17758590  0.82157781    -0.23300
C1947       C  0.22742878  0.17377630  0.82817832     0.13100
C1948       C  0.22595293  0.14260707  0.82883551    -0.12400
N1949       N  0.16003265  0.09375382  0.80891205     0.64800
H1950       H  0.16623844  0.15143508  0.80991986     0.12600
N1951       N  0.25427620  0.20087820  0.83366990     0.61400
H1952       H  0.24305817  0.14015985  0.83405609     0.08800
O1953       O  0.11723441  0.98633623  0.81512584    -0.40100
O1954       O  0.11573655  0.98835242  0.83197197    -0.39200
O1955       O  0.28347481  0.11618035  0.82857114    -0.39200
O1956       O  0.27402627  0.11560767  0.81186428    -0.36900
O1957       O  0.25504209  0.19903233  0.84350370    -0.37900
O1958       O  0.28181370  0.21791148  0.82901908    -0.34000
O1959       O  0.12933906  0.07704286  0.81114132    -0.35400
O1960       O  0.16871237  0.09534308  0.79948370    -0.39700
C1961       C  0.24251373  0.27656000  0.84148487    -0.13400
C1962       C  0.26242894  0.30664624  0.83609211     0.17000
C1963       C  0.26539166  0.30453484  0.82517806     0.03300
C1964       C  0.24916433  0.27353738  0.82013032    -0.11900
C1965       C  0.22764505  0.24287688  0.82533493    -0.03000
C1966       C  0.22386686  0.24575683  0.83631549     0.02500
C1967       C  0.27542588  0.33934548  0.84187538     0.09400
N1968       N  0.28124015  0.33358951  0.81873465     0.65700
H1969       H  0.25098010  0.27496071  0.81171469     0.18600
N1970       N  0.19733797  0.21972666  0.84216573     0.76200
H1971       H  0.23891521  0.27718599  0.84983361     0.10100
C1972       C  0.30831518  0.36686812  0.84092347     0.03800
C1973       C  0.31823041  0.39643348  0.84655631    -0.04900
C1974       C  0.29680655  0.39990853  0.85365011    -0.23300
C1975       C  0.26463100  0.37082571  0.85517003     0.13100
C1976       C  0.25422376  0.34228497  0.84905992    -0.12400
N1977       N  0.33348509  0.36431726  0.83529421     0.64800
H1978       H  0.34423780  0.41524956  0.84603732     0.12600
N1979       N  0.24285560  0.36839010  0.86349400     0.61400
H1980       H  0.22908830  0.32164499  0.85021659     0.08800
O1981       O  0.17080189  0.22081823  0.84313745    -0.40100
O1982       O  0.20452505  0.20557698  0.84929998    -0.39200
O1983       O  0.30593055  0.33856113  0.81323315    -0.39200
O1984       O  0.26464748  0.34709442  0.81600507    -0.36900
O1985       O  0.22214967  0.37805918  0.86206720    -0.37900
O1986       O  0.23825845  0.34891669  0.87102733    -0.34000
O1987       O  0.34881559  0.38476135  0.82801026    -0.35400
O1988       O  0.34721777  0.34988254  0.83964583    -0.39700
C1989       C  0.16641653  0.42310930  0.86215316    -0.13400
C1990       C  0.19268374  0.45182245  0.85777068     0.17000
C1991       C  0.18593414  0.47552462  0.85344085     0.03300
C1992       C  0.15374306  0.47147207  0.85436155    -0.11900
C1993       C  0.12736035  0.44402503  0.85976241    -0.03000
C1994       C  0.13401649  0.41825632  0.86282005     0.02500
C1995       C  0.22613453  0.45472653  0.85713477     0.09400
N1996       N  0.21138235  0.50342465  0.84785917     0.65700
H1997       H  0.14973667  0.49010304  0.85069420     0.18600
N1998       N  0.10834173  0.38642758  0.86640621     0.76200
H1999       H  0.17094567  0.40368072  0.86489620     0.10100
C2000       C  0.24950626  0.46839416  0.86533814     0.03800
C2001       C  0.27733329  0.46419053  0.86546672    -0.04900
C2002       C  0.28174317  0.44416762  0.85820723    -0.23300
C2003       C  0.26155756  0.43646412  0.84888974     0.13100
C2004       C  0.23353819  0.44065963  0.84870900    -0.12400
N2005       N  0.24391036  0.48440636  0.87392458     0.64800
H2006       H  0.29435529  0.47428939  0.87241504     0.12600
N2007       N  0.26954351  0.42593254  0.83938435     0.61400
H2008       H  0.21694782  0.43220066  0.84194904     0.08800
O2009       O  0.10845722  0.37867943  0.87587464    -0.40100
O2010       O  0.09489931  0.36333342  0.85979161    -0.39200
O2011       O  0.23329552  0.52820822  0.85284168    -0.39200
O2012       O  0.21557620  0.50072338  0.83824304    -0.36900
O2013       O  0.24919102  0.39748883  0.83586576    -0.37900
O2014       O  0.28904944  0.44792572  0.83302613    -0.34000
O2015       O  0.22910218  0.46760439  0.88195199    -0.35400
O2016       O  0.26061416  0.51564644  0.87453823    -0.39700
C2017       C  0.00164960  0.25707407  0.79594475    -0.13400
C2018       C  0.97353161  0.23400061  0.79039811     0.17000
C2019       C  0.95244520  0.20297996  0.79500421     0.03300
C2020       C  0.95712899  0.19738855  0.80546999    -0.11900
C2021       C  0.98222040  0.22258332  0.81183678    -0.03000
C2022       C  0.00726346  0.25109004  0.80629377     0.02500
C2023       C  0.96789665  0.24259690  0.77968930     0.09400
N2024       N  0.92572121  0.17690631  0.78924684     0.65700
H2025       H  0.94041058  0.17280406  0.80848380     0.18600
N2026       N  0.03887447  0.27415665  0.81075203     0.76200
H2027       H  0.01995255  0.27980649  0.79210273     0.10100
C2028       C  0.96397862  0.27029977  0.77794609     0.03800
C2029       C  0.96239111  0.28025565  0.76774078    -0.04900
C2030       C  0.96533109  0.26360221  0.75905030    -0.23300
C2031       C  0.96801309  0.23502739  0.76080119     0.13100
C2032       C  0.96919745  0.22480998  0.77107230    -0.12400
N2033       N  0.96247556  0.28922065  0.78646836     0.64800
H2034       H  0.96032750  0.30221106  0.76665982     0.12600
N2035       N  0.97090150  0.21680352  0.75232738     0.61400
H2036       H  0.97268059  0.20375393  0.77230579     0.08800
O2037       O  0.04605254  0.30393564  0.81178647    -0.40100
O2038       O  0.06259310  0.26852068  0.80955243    -0.39200
O2039       O  0.92937525  0.15376164  0.78568317    -0.39200
O2040       O  0.89667742  0.17265017  0.79004798    -0.36900
O2041       O  0.99958120  0.22334950  0.74939047    -0.37900
O2042       O  0.94577672  0.18949884  0.74974731    -0.34000
O2043       O  0.98783556  0.31688016  0.78861825    -0.35400
O2044       O  0.93432752  0.28246413  0.78999682    -0.39700
C2045       C  0.07496584  0.23254054  0.82868475    -0.13400
C2046       C  0.07419411  0.20791345  0.82234689     0.17000
C2047       C  0.04325506  0.18445367  0.81798301     0.03300
C2048       C  0.01455704  0.18696189  0.81963883    -0.11900
C2049       C  0.01495517  0.21313133  0.82540654    -0.03000
C2050       C  0.04687734  0.23626871  0.83014046     0.02500
C2051       C  0.10592550  0.20702702  0.82070656     0.09400
N2052       N  0.04087859  0.15928583  0.81112776     0.65700
H2053       H  0.99186669  0.16916946  0.81566400     0.18600
N2054       N  0.05363249  0.26551524  0.83575014     0.76200
H2055       H  0.09843752  0.25030467  0.83231390     0.10100
C2056       C  0.13521247  0.23452996  0.81673057     0.03800
C2057       C  0.16521468  0.23395359  0.81619482    -0.04900
C2058       C  0.16807772  0.20648381  0.81954515    -0.23300
C2059       C  0.13830294  0.17923487  0.82410911     0.13100
C2060       C  0.10804652  0.17974053  0.82426938    -0.12400
N2061       N  0.13505778  0.26344418  0.81306194     0.64800
H2062       H  0.18673417  0.25549262  0.81288187     0.12600
N2063       N  0.13774401  0.15187157  0.82945496     0.61400
H2064       H  0.08621409  0.15912717  0.82784902     0.08800
O2065       O  0.06102692  0.26710405  0.84532798    -0.40100
O2066       O  0.06527586  0.29251928  0.83078491    -0.39200
O2067       O  0.02630994  0.12953551  0.81424244    -0.39200
O2068       O  0.04529807  0.16533934  0.80144663    -0.36900
O2069       O  0.14472459  0.15457668  0.83907772    -0.37900
O2070       O  0.11934318  0.12307193  0.82584910    -0.34000
O2071       O  0.14824355  0.28923503  0.81863282    -0.35400
O2072       O  0.13013499  0.26591845  0.80346576    -0.39700
C2073       C  0.00189492  0.28126936  0.84644399    -0.13400
C2074       C  0.00717893  0.30990786  0.84091576     0.17000
C2075       C  0.99643130  0.30526335  0.83037002     0.03300
C2076       C  0.98622995  0.27490779  0.82533717    -0.11900
C2077       C  0.98648553  0.24791562  0.83037451    -0.03000
C2078       C  0.98952174  0.25016989  0.84145639     0.02500
C2079       C  0.02507673  0.34417190  0.84594043     0.09400
N2080       N  0.99446953  0.33064834  0.82464444     0.65700
H2081       H  0.97776031  0.27292165  0.81735779     0.18600
N2082       N  0.98030405  0.22135465  0.84776211     0.76200
H2083       H  0.00847727  0.28283608  0.85460963     0.10100
C2084       C  0.02052661  0.34953217  0.85650944     0.03800
C2085       C  0.04125919  0.38045264  0.86121676    -0.04900
C2086       C  0.06592534  0.40891241  0.85569762    -0.23300
C2087       C  0.06884505  0.40376473  0.84483336     0.13100
C2088       C  0.04951233  0.37190308  0.84030009    -0.12400
N2089       N  0.99491463  0.32393771  0.86278173     0.64800
H2090       H  0.03825462  0.38055171  0.86954596     0.12600
N2091       N  0.09302365  0.42974597  0.83831481     0.61400
H2092       H  0.05495738  0.36875672  0.83231559     0.08800
O2093       O  0.95104874  0.20558112  0.85141657    -0.40100
O2094       O  0.00251822  0.21653378  0.85170198    -0.39200
O2095       O  0.01445166  0.34499919  0.81716919    -0.39200
O2096       O  0.96765975  0.33143872  0.82497530    -0.36900
O2097       O  0.11928919  0.42940303  0.83597165    -0.37900
O2098       O  0.08335806  0.44478595  0.83229616    -0.34000
O2099       O  0.00317750  0.31195440  0.87032234    -0.35400
O2100       O  0.96627556  0.32093157  0.86280277    -0.39700
C2101       C  0.09095231  0.58533025  0.84793253    -0.13400
C2102       C  0.08284066  0.56291160  0.85628921     0.17000
C2103       C  0.07418934  0.57117587  0.86585091     0.03300
C2104       C  0.07459352  0.60116672  0.86703341    -0.11900
C2105       C  0.08178182  0.62434566  0.85872018    -0.03000
C2106       C  0.09102329  0.61569084  0.84903152     0.02500
C2107       C  0.08810160  0.53358759  0.85572535     0.09400
N2108       N  0.06554403  0.54947970  0.87469539     0.65700
H2109       H  0.07046718  0.60612005  0.87494316     0.18600
N2110       N  0.10341024  0.63823619  0.84040592     0.76200
H2111       H  0.09904816  0.58011020  0.84060741     0.10100
C2112       C  0.06690569  0.50426295  0.85017025     0.03800
C2113       C  0.06966434  0.47545067  0.85152459    -0.04900
C2114       C  0.09314647  0.47474150  0.85857752    -0.23300
C2115       C  0.11518537  0.50545028  0.86378487     0.13100
C2116       C  0.11286312  0.53392241  0.86205373    -0.12400
N2117       N  0.04086256  0.50266982  0.84372967     0.64800
H2118       H  0.05143497  0.45296697  0.84765262     0.12600
N2119       N  0.13858933  0.50810011  0.87162241     0.61400
H2120       H  0.12951395  0.55632031  0.86633298     0.08800
O2121       O  0.08549610  0.63149465  0.83229918    -0.40100
O2122       O  0.13468237  0.65637900  0.83945906    -0.39200
O2123       O  0.08730644  0.55526703  0.88161892    -0.39200
O2124       O  0.03508897  0.53027931  0.87681101    -0.36900
O2125       O  0.16920863  0.52262042  0.86927910    -0.37900
O2126       O  0.13094955  0.50815758  0.88108753    -0.34000
O2127       O  0.01434790  0.49844896  0.84790649    -0.35400
O2128       O  0.04688461  0.51179977  0.83429037    -0.39700
C2129       C  0.16636600  0.74095887  0.85300207    -0.13400
C2130       C  0.18955649  0.74009778  0.85986226     0.17000
C2131       C  0.17963688  0.71046161  0.86546416     0.03300
C2132       C  0.14601902  0.68437550  0.86509308    -0.11900
C2133       C  0.12104978  0.68690926  0.85937494    -0.03000
C2134       C  0.13318292  0.71451240  0.85222400     0.02500
C2135       C  0.22132660  0.77217048  0.86199030     0.09400
N2136       N  0.20295639  0.70658180  0.87178887     0.65700
H2137       H  0.13891057  0.66270309  0.86993874     0.18600
N2138       N  0.11409758  0.71563701  0.84351957     0.76200
H2139       H  0.17426279  0.76270506  0.84810264     0.10100
C2140       C  0.25293057  0.78059467  0.85800188     0.03800
C2141       C  0.28024801  0.81344882  0.85890412    -0.04900
C2142       C  0.27676532  0.83998527  0.86292069    -0.23300
C2143       C  0.24491661  0.82960896  0.86785223     0.13100
C2144       C  0.21848483  0.79664200  0.86726305    -0.12400
N2145       N  0.25750547  0.75669425  0.85246402     0.64800
H2146       H  0.30375418  0.81723135  0.85615873     0.12600
N2147       N  0.23743917  0.85201514  0.87312500     0.61400
H2148       H  0.19452290  0.79039579  0.87062044     0.08800
O2149       O  0.10820306  0.73920901  0.84290251    -0.40100
O2150       O  0.11432117  0.70166833  0.83512983    -0.39200
O2151       O  0.20443790  0.71214975  0.88148054    -0.39200
O2152       O  0.21513251  0.68968421  0.86830807    -0.36900
O2153       O  0.21589717  0.85764014  0.86905440    -0.37900
O2154       O  0.24091332  0.85427967  0.88294274    -0.34000
O2155       O  0.25538458  0.75582837  0.84261174    -0.35400
O2156       O  0.27193056  0.74320747  0.85697584    -0.39700
C2157       C  0.95752319  0.69282467  0.79217703    -0.13400
C2158       C  0.97838210  0.71326831  0.78426719     0.17000
C2159       C  0.99734495  0.74760677  0.78592663     0.03300
C2160       C  0.99587994  0.76098182  0.79555737    -0.11900
C2161       C  0.97430472  0.74105616  0.80370656    -0.03000
C2162       C  0.95500574  0.70582784  0.80174978     0.02500
C2163       C  0.97911792  0.69822724  0.77420514     0.09400
N2164       N  0.01898284  0.76933081  0.77796690     0.65700
H2165       H  0.01320172  0.78698182  0.79657128     0.18600
N2166       N  0.93471048  0.68220001  0.80959800     0.76200
H2167       H  0.94304313  0.66623862  0.79093231     0.10100
C2168       C  0.99826705  0.68278127  0.77286376     0.03800
C2169       C  0.99860525  0.66930971  0.76315017    -0.04900
C2170       C  0.97959159  0.67028060  0.75470283    -0.23300
C2171       C  0.95874608  0.68391860  0.75629385     0.13100
C2172       C  0.95902950  0.69807042  0.76596744    -0.12400
N2173       N  0.01791538  0.68099881  0.78121430     0.64800
H2174       H  0.01438295  0.65852578  0.76217697     0.12600
N2175       N  0.93782580  0.68449818  0.74815649     0.61400
H2176       H  0.94350683  0.70909240  0.76705779     0.08800
O2177       O  0.94488019  0.66409764  0.81363277    -0.40100
O2178       O  0.90381394  0.67203831  0.80982760    -0.39200
O2179       O  0.00948339  0.78559877  0.77246589    -0.39200
O2180       O  0.04958668  0.77811363  0.77816735    -0.36900
O2181       O  0.90741231  0.66210284  0.74793783    -0.37900
O2182       O  0.94713110  0.71104607  0.74310372    -0.34000
O2183       O  0.00689814  0.65423297  0.78629569    -0.35400
O2184       O  0.04870784  0.70217426  0.78162714    -0.39700
C2185       C  0.03655355  0.85233389  0.81100129    -0.13400
C2186       C  0.06295594  0.85842589  0.81777378     0.17000
C2187       C  0.05781413  0.83286364  0.82481351     0.03300
C2188       C  0.02844040  0.80186107  0.82430311    -0.11900
C2189       C  0.00405158  0.79337489  0.81629234    -0.03000
C2190       C  0.00726507  0.82091000  0.81034158     0.02500
C2191       C  0.09486779  0.89158789  0.81757838     0.09400
N2192       N  0.08256176  0.83710391  0.83235865     0.65700
H2193       H  0.02605076  0.78418208  0.83021314     0.18600
N2194       N  0.98118574  0.81818309  0.80367212     0.76200
H2195       H  0.03834848  0.87242034  0.80623355     0.10100
C2196       C  0.11165920  0.90637642  0.80814376     0.03800
C2197       C  0.14243197  0.93614974  0.80826826    -0.04900
C2198       C  0.15801045  0.95314813  0.81761817    -0.23300
C2199       C  0.14102616  0.93748619  0.82715793     0.13100
C2200       C  0.10960140  0.90821767  0.82694212    -0.12400
N2201       N  0.09909723  0.89055342  0.79828123     0.64800
H2202       H  0.15500857  0.94388367  0.80085638     0.12600
N2203       N  0.15647241  0.94859357  0.83720559     0.61400
H2204       H  0.09711330  0.89796433  0.83430329     0.08800
O2205       O  0.98712420  0.82401567  0.79402284    -0.40100
O2206       O  0.95877435  0.82242376  0.80767543    -0.39200
O2207       O  0.07724683  0.83946161  0.84190780    -0.39200
O2208       O  0.10401221  0.82919424  0.82994212    -0.36900
O2209       O  0.14754199  0.96453276  0.84298889    -0.37900
O2210       O  0.16923439  0.93313542  0.84149883    -0.34000
O2211       O  0.08589812  0.90201676  0.79215849    -0.35400
O2212       O  0.10963273  0.87246538  0.79461026    -0.39700
C2213       C  0.01724362  0.70783905  0.82621912    -0.13400
C2214       C  0.99788171  0.69149627  0.83490996     0.17000
C2215       C  0.97043486  0.69570628  0.83727532     0.03300
C2216       C  0.96271951  0.71570772  0.83083298    -0.11900
C2217       C  0.98289620  0.73340907  0.82216642    -0.03000
C2218       C  0.01101541  0.72895563  0.82006418     0.02500
C2219       C  0.01255818  0.67769791  0.84243001     0.09400
N2220       N  0.95009428  0.67992331  0.84622046     0.65700
H2221       H  0.94077504  0.71706660  0.83273834     0.18600
N2222       N  0.03407741  0.74560873  0.81168724     0.76200
H2223       H  0.03909793  0.70584413  0.82452022     0.10100
C2224       C  0.01652384  0.65028001  0.84016216     0.03800
C2225       C  0.03835703  0.64397861  0.84621177    -0.04900
C2226       C  0.05886153  0.66589838  0.85415991    -0.23300
C2227       C  0.05287172  0.69259123  0.85662502     0.13100
C2228       C  0.03008869  0.69767073  0.85085549    -0.12400
N2229       N  0.99850326  0.62843499  0.83174630     0.64800
H2230       H  0.03870964  0.62151997  0.84460413     0.12600
N2231       N  0.06897618  0.71499495  0.86510559     0.61400
H2232       H  0.02757227  0.71900634  0.85265409     0.08800
O2233       O  0.03326714  0.72861784  0.80392078    -0.40100
O2234       O  0.06120675  0.77183169  0.81368882    -0.39200
O2235       O  0.95447403  0.69672111  0.85438834    -0.39200
O2236       O  0.92303867  0.65284805  0.84506392    -0.36900
O2237       O  0.05179824  0.71162964  0.87315232    -0.37900
O2238       O  0.09326647  0.74348937  0.86307207    -0.34000
O2239       O  0.01354154  0.63071261  0.82330018    -0.35400
O2240       O  0.97120060  0.60225472  0.83365443    -0.39700
C2241       C  0.43119751  0.84872155  0.85207343    -0.13400
C2242       C  0.43264897  0.87932602  0.85163251     0.17000
C2243       C  0.46452753  0.90799823  0.85130902     0.03300
C2244       C  0.49376346  0.90591328  0.85272809    -0.11900
C2245       C  0.49327845  0.87517299  0.85361420    -0.03000
C2246       C  0.46023650  0.84599509  0.85288648     0.02500
C2247       C  0.40143230  0.88149340  0.85340089     0.09400
N2248       N  0.46737287  0.93964548  0.84959640     0.65700
H2249       H  0.51706165  0.92898252  0.85371271     0.18600
N2250       N  0.45413083  0.81296289  0.85418414     0.76200
H2251       H  0.40689783  0.82632568  0.85245680     0.10100
C2252       C  0.37375592  0.86828242  0.84655187     0.03800
C2253       C  0.34479773  0.87020094  0.84898932    -0.04900
C2254       C  0.34127539  0.88347018  0.85859001    -0.23300
C2255       C  0.37187576  0.90081378  0.86467266     0.13100
C2256       C  0.39989304  0.89786445  0.86227350    -0.12400
N2257       N  0.37479279  0.85288943  0.83705358     0.64800
H2258       H  0.32404918  0.85961221  0.84353051     0.12600
N2259       N  0.37776898  0.92501648  0.87252824     0.61400
H2260       H  0.42160544  0.90980045  0.86734788     0.08800
O2261       O  0.44712252  0.79484853  0.84619399    -0.40100
O2262       O  0.44480840  0.79916862  0.86302930    -0.39200
O2263       O  0.45598612  0.94485565  0.84125830    -0.39200
O2264       O  0.47638853  0.96030326  0.85696549    -0.36900
O2265       O  0.38544451  0.92043117  0.88161893    -0.37900
O2266       O  0.38917150  0.95462410  0.86959999    -0.34000
O2267       O  0.39422540  0.87044241  0.82981298    -0.35400
O2268       O  0.36173242  0.82175493  0.83674393    -0.39700
C2269       C  0.73860953  0.03959362  0.79299238    -0.13400
C2270       C  0.73113864  0.01518553  0.78545761     0.17000
C2271       C  0.73752786  0.98942508  0.78780656     0.03300
C2272       C  0.74761372  0.98643390  0.79788871    -0.11900
C2273       C  0.74947725  0.00736905  0.80614084    -0.03000
C2274       C  0.74859593  0.03657548  0.80315460     0.02500
C2275       C  0.71719693  0.01692844  0.77513841     0.09400
N2276       N  0.73237631  0.96502856  0.78016526     0.65700
H2277       H  0.75342599  0.96704106  0.79909510     0.18600
N2278       N  0.75702614  0.06314007  0.81031704     0.76200
H2279       H  0.73601807  0.06082870  0.79104958     0.10100
C2280       C  0.68471503  0.01216996  0.77422050     0.03800
C2281       C  0.67065577  0.00963616  0.76432683    -0.04900
C2282       C  0.68811411  0.01143025  0.75516395    -0.23300
C2283       C  0.72159723  0.01866692  0.75607598     0.13100
C2284       C  0.73570056  0.02119298  0.76601839    -0.12400
N2285       N  0.66446946  0.00709465  0.78320907     0.64800
H2286       H  0.64508674  0.00444020  0.76387616     0.12600
N2287       N  0.74135132  0.02243608  0.74706723     0.61400
H2288       H  0.76094318  0.02552898  0.76662311     0.08800
O2289       O  0.73407612  0.06527139  0.81487127    -0.40100
O2290       O  0.78576444  0.08860381  0.80978388    -0.39200
O2291       O  0.75728563  0.96472313  0.77633864    -0.39200
O2292       O  0.70355369  0.94010298  0.77897557    -0.36900
O2293       O  0.76162063  0.05127012  0.74376662    -0.37900
O2294       O  0.74487001  0.99850647  0.74424032    -0.34000
O2295       O  0.66140911  0.03088316  0.78649109    -0.35400
O2296       O  0.64264564  0.97782492  0.78567986    -0.39700
C2297       C  0.84858589  0.07025479  0.81821000    -0.13400
C2298       C  0.85126857  0.09091229  0.82651119     0.17000
C2299       C  0.82195083  0.08146268  0.83237943     0.03300
C2300       C  0.79101421  0.05235982  0.82983991    -0.11900
C2301       C  0.78788268  0.03109762  0.82142107    -0.03000
C2302       C  0.81813931  0.04131908  0.81557839     0.02500
C2303       C  0.88401356  0.12361636  0.82815820     0.09400
N2304       N  0.82333652  0.10128219  0.84105118     0.65700
H2305       H  0.76932785  0.04732855  0.83436672     0.18600
N2306       N  0.81811345  0.02457726  0.80621402     0.76200
H2307       H  0.87037641  0.07734987  0.81338255     0.10100
C2308       C  0.91389995  0.12502200  0.83145908     0.03800
C2309       C  0.94516834  0.15535689  0.83112868    -0.04900
C2310       C  0.94810235  0.18551421  0.82740493    -0.23300
C2311       C  0.91686881  0.18429878  0.82550961     0.13100
C2312       C  0.88606333  0.15385382  0.82561803    -0.12400
N2313       N  0.91269449  0.09568165  0.83534904     0.64800
H2314       H  0.96719526  0.15476131  0.83360194     0.12600
N2315       N  0.91580012  0.21345755  0.82270915     0.61400
H2316       H  0.86349059  0.15380475  0.82332350     0.08800
O2317       O  0.81926537  0.99817642  0.80676842    -0.40100
O2318       O  0.82404505  0.03970722  0.79756089    -0.39200
O2319       O  0.83806724  0.10095384  0.84934208    -0.39200
O2320       O  0.81550843  0.12334509  0.83977649    -0.36900
O2321       O  0.90955721  0.21733041  0.81335372    -0.37900
O2322       O  0.91091042  0.22916950  0.82982380    -0.34000
O2323       O  0.90030663  0.08458067  0.84425759    -0.35400
O2324       O  0.91839950  0.07791992  0.82926339    -0.39700
C2325       C  0.65883626  0.96861756  0.82569121    -0.13400
C2326       C  0.65803249  0.96127877  0.83632859     0.17000
C2327       C  0.68964899  0.97158465  0.84111449     0.03300
C2328       C  0.71940412  0.98546827  0.83508284    -0.11900
C2329       C  0.72033457  0.99210927  0.82422846    -0.03000
C2330       C  0.68844478  0.98456937  0.81976482     0.02500
C2331       C  0.62403665  0.94006175  0.84172347     0.09400
N2332       N  0.69262924  0.96878008  0.85215205     0.65700
H2333       H  0.74221148  0.99021599  0.83897436     0.18600
N2334       N  0.68342189  0.98986991  0.80905490     0.76200
H2335       H  0.63569070  0.95990957  0.82147905     0.10100
C2336       C  0.59444572  0.94081077  0.83903701     0.03800
C2337       C  0.56301039  0.91779992  0.84344496    -0.04900
C2338       C  0.55973276  0.89637267  0.85180759    -0.23300
C2339       C  0.58956491  0.89530806  0.85424737     0.13100
C2340       C  0.61993217  0.91562548  0.84896403    -0.12400
N2341       N  0.59568075  0.96616709  0.83239637     0.64800
H2342       H  0.54157114  0.91844119  0.84047716     0.12600
N2343       N  0.59039434  0.87414436  0.86222376     0.61400
H2344       H  0.64062771  0.91187427  0.85068191     0.08800
O2345       O  0.67627064  0.01209507  0.80706501    -0.40100
O2346       O  0.67304305  0.96583408  0.80280895    -0.39200
O2347       O  0.70106331  0.94860591  0.85556631    -0.39200
O2348       O  0.69712771  0.99260928  0.85789289    -0.36900
O2349       O  0.58983914  0.84792020  0.85947648    -0.37900
O2350       O  0.60377964  0.88697858  0.87086969    -0.34000
O2351       O  0.58112382  0.95823437  0.82362819    -0.35400
O2352       O  0.60233502  0.99347811  0.83641470    -0.39700
C2353       C  0.46839180  0.55703358  0.85274343    -0.13400
C2354       C  0.43767710  0.55556727  0.85187389     0.17000
C2355       C  0.43734603  0.58538435  0.85153535     0.03300
C2356       C  0.46730400  0.61596364  0.85236445    -0.11900
C2357       C  0.49926352  0.61869943  0.85352350    -0.03000
C2358       C  0.49862511  0.58744532  0.85393340     0.02500
C2359       C  0.40604900  0.52352144  0.85379921     0.09400
N2360       N  0.40616154  0.58479729  0.85136487     0.65700
H2361       H  0.46417807  0.63720829  0.85305681     0.18600
N2362       N  0.52631585  0.58467321  0.85760095     0.76200
H2363       H  0.46860479  0.53401411  0.85364054     0.10100
C2364       C  0.38717827  0.50165368  0.84577318     0.03800
C2365       C  0.35562797  0.47363028  0.84795294    -0.04900
C2366       C  0.34319649  0.46425311  0.85830708    -0.23300
C2367       C  0.36303036  0.48783967  0.86636858     0.13100
C2368       C  0.39360757  0.51629359  0.86394011    -0.12400
N2369       N  0.40035565  0.50711430  0.83541038     0.64800
H2370       H  0.34123022  0.45898067  0.84139122     0.12600
N2371       N  0.35313484  0.48503326  0.87711610     0.61400
H2372       H  0.40778013  0.53351170  0.87015087     0.08800
O2373       O  0.54003500  0.57447521  0.85131197    -0.40100
O2374       O  0.52666917  0.57812125  0.86718424    -0.39200
O2375       O  0.38911394  0.57704951  0.84305257    -0.39200
O2376       O  0.39290671  0.58569587  0.85987148    -0.36900
O2377       O  0.34532083  0.50556705  0.88051857    -0.37900
O2378       O  0.36559701  0.47366247  0.88355918    -0.34000
O2379       O  0.39804060  0.52761511  0.82950347    -0.35400
O2380       O  0.42049758  0.49741055  0.83309223    -0.39700
C2381       C  0.50825030  0.72176020  0.84873915    -0.13400
C2382       C  0.51699851  0.74229261  0.85761135     0.17000
C2383       C  0.52751410  0.73146574  0.86655609     0.03300
C2384       C  0.52886540  0.70209035  0.86634371    -0.11900
C2385       C  0.52221602  0.68241166  0.85726598    -0.03000
C2386       C  0.51284082  0.69406673  0.84821971     0.02500
C2387       C  0.51565533  0.77452674  0.85741942     0.09400
N2388       N  0.53929856  0.75065843  0.87591944     0.65700
H2389       H  0.53880614  0.69715942  0.87332718     0.18600
N2390       N  0.50952147  0.67951550  0.83816331     0.76200
H2391       H  0.49823412  0.72720373  0.84188768     0.10100
C2392       C  0.52107152  0.79459964  0.84835832     0.03800
C2393       C  0.52119916  0.82485687  0.84906087    -0.04900
C2394       C  0.52029338  0.83911558  0.85872575    -0.23300
C2395       C  0.51596976  0.81906836  0.86781645     0.13100
C2396       C  0.50986750  0.78651463  0.86675010    -0.12400
N2397       N  0.52835096  0.78621678  0.83837244     0.64800
H2398       H  0.52433342  0.83863536  0.84188978     0.12600
N2399       N  0.51995787  0.83078010  0.87831963     0.61400
H2400       H  0.50196945  0.77115550  0.87365597     0.08800
O2401       O  0.53386132  0.69373045  0.83193130    -0.40100
O2402       O  0.48060277  0.66174949  0.83438555    -0.39200
O2403       O  0.52198074  0.73972434  0.88413880    -0.39200
O2404       O  0.57000229  0.77178591  0.87674541    -0.36900
O2405       O  0.49552311  0.81628434  0.88450816    -0.37900
O2406       O  0.54901528  0.84593186  0.88215194    -0.34000
O2407       O  0.50642867  0.77659436  0.83126758    -0.35400
O2408       O  0.55851421  0.79772751  0.83582045    -0.39700
C2409       C  0.74790621  0.73101159  0.79267424    -0.13400
C2410       C  0.74388460  0.75160416  0.78563523     0.17000
C2411       C  0.75028631  0.78280838  0.78903342     0.03300
C2412       C  0.75858357  0.79205725  0.79952814    -0.11900
C2413       C  0.75894130  0.76997133  0.80716616    -0.03000
C2414       C  0.75557128  0.73962398  0.80322038     0.02500
C2415       C  0.72797518  0.73751989  0.77540879     0.09400
N2416       N  0.74706321  0.80499435  0.78203641     0.65700
H2417       H  0.76385683  0.81667087  0.80151869     0.18600
N2418       N  0.75750954  0.71576896  0.80978200     0.76200
H2419       H  0.74336130  0.70699934  0.79006327     0.10100
C2420       C  0.74658225  0.74023662  0.76639504     0.03800
C2421       C  0.73007596  0.72332387  0.75723972    -0.04900
C2422       C  0.69504043  0.70347285  0.75686493    -0.23300
C2423       C  0.67651142  0.70065742  0.76599019     0.13100
C2424       C  0.69309660  0.71762490  0.77509974    -0.12400
N2425       N  0.78220339  0.75990345  0.76640195     0.64800
H2426       H  0.74482914  0.72610861  0.75034730     0.12600
N2427       N  0.64093522  0.68015718  0.76627997     0.61400
H2428       H  0.67862954  0.71474534  0.78208086     0.08800
O2429       O  0.78445421  0.71517868  0.80981473    -0.40100
O2430       O  0.73074063  0.68918294  0.81184662    -0.39200
O2431       O  0.72067126  0.80658265  0.78223434    -0.39200
O2432       O  0.77298718  0.82835083  0.77787362    -0.36900
O2433       O  0.62814098  0.65083193  0.76970568    -0.37900
O2434       O  0.62310339  0.69348718  0.76564122    -0.34000
O2435       O  0.79919866  0.74570303  0.76713721    -0.35400
O2436       O  0.79597457  0.78934242  0.76302388    -0.39700
C2437       C  0.82768423  0.75151016  0.82952449    -0.13400
C2438       C  0.85516272  0.77040738  0.82291266     0.17000
C2439       C  0.85382703  0.79410608  0.81643257     0.03300
C2440       C  0.82478087  0.79649664  0.81588273    -0.11900
C2441       C  0.79615755  0.77741672  0.82223362    -0.03000
C2442       C  0.79855548  0.75457782  0.82935529     0.02500
C2443       C  0.88325688  0.76289005  0.82163544     0.09400
N2444       N  0.88220346  0.81621811  0.81028782     0.65700
H2445       H  0.82427105  0.81323647  0.81007901     0.18600
N2446       N  0.77136898  0.73220592  0.83592254     0.76200
H2447       H  0.82803158  0.73283632  0.83451449     0.10100
C2448       C  0.90956242  0.77280700  0.82888421     0.03800
C2449       C  0.93721587  0.76853632  0.82666669    -0.04900
C2450       C  0.94064976  0.75523716  0.81704470    -0.23300
C2451       C  0.91375929  0.74625976  0.80962775     0.13100
C2452       C  0.88568740  0.74909983  0.81222543    -0.12400
N2453       N  0.90975627  0.78961262  0.83820897     0.64800
H2454       H  0.95714290  0.77717642  0.83239789     0.12600
N2455       N  0.91513799  0.73774847  0.79896060     0.61400
H2456       H  0.86628892  0.74249338  0.80638999     0.08800
O2457       O  0.77521879  0.73473577  0.84572203    -0.40100
O2458       O  0.74903352  0.70488099  0.83223666    -0.39200
O2459       O  0.90709550  0.84028783  0.81461994    -0.39200
O2460       O  0.88354979  0.81027953  0.80074074    -0.36900
O2461       O  0.89285947  0.70980623  0.79561828    -0.37900
O2462       O  0.93059762  0.76078611  0.79239658    -0.34000
O2463       O  0.92100715  0.82050899  0.83792423    -0.35400
O2464       O  0.89310470  0.77303088  0.84604021    -0.39700
C2465       C  0.79226720  0.87502771  0.82341482    -0.13400
C2466       C  0.76173102  0.87460614  0.82229786     0.17000
C2467       C  0.73291632  0.84278648  0.82088225     0.03300
C2468       C  0.73592282  0.81473090  0.81930774    -0.11900
C2469       C  0.76604333  0.81418625  0.82081733    -0.03000
C2470       C  0.79456055  0.84576588  0.82347593     0.02500
C2471       C  0.76024991  0.90679122  0.82178175     0.09400
N2472       N  0.69969411  0.83731721  0.82173296     0.65700
H2473       H  0.71319913  0.79225115  0.81720742     0.18600
N2474       N  0.82627081  0.84994278  0.82639373     0.76200
H2475       H  0.81523158  0.89832867  0.82427505     0.10100
C2476       C  0.78270571  0.93705141  0.82693561     0.03800
C2477       C  0.78023130  0.96592654  0.82548606    -0.04900
C2478       C  0.75473275  0.96630087  0.81937067    -0.23300
C2479       C  0.72996507  0.93446571  0.81549214     0.13100
C2480       C  0.73526896  0.90739459  0.81571192    -0.12400
N2481       N  0.80773153  0.93930206  0.83399529     0.64800
H2482       H  0.79825451  0.98799054  0.82959442     0.12600
N2483       N  0.69823501  0.92774651  0.81158792     0.61400
H2484       H  0.71854689  0.88620709  0.81107877     0.08800
O2485       O  0.83207405  0.84860391  0.83598303    -0.40100
O2486       O  0.85086942  0.86675436  0.82042769    -0.39200
O2487       O  0.68031841  0.82606904  0.81394210    -0.39200
O2488       O  0.68715532  0.83367778  0.83072851    -0.36900
O2489       O  0.67445632  0.91695345  0.81805137    -0.37900
O2490       O  0.69113047  0.91884114  0.80216962    -0.34000
O2491       O  0.83805721  0.95614132  0.83133616    -0.35400
O2492       O  0.80063845  0.93342611  0.84357756    -0.39700
C2493       C  0.69203196  0.73878543  0.84063682    -0.13400
C2494       C  0.66309510  0.71847674  0.83468665     0.17000
C2495       C  0.66823859  0.71525589  0.82397568     0.03300
C2496       C  0.70074843  0.73055215  0.81976445    -0.11900
C2497       C  0.73003044  0.75347351  0.82541211    -0.03000
C2498       C  0.72409158  0.75839310  0.83609355     0.02500
C2499       C  0.62825802  0.70200809  0.83966919     0.09400
N2500       N  0.64080141  0.70049487  0.81679767     0.65700
H2501       H  0.70134298  0.72728280  0.81146468     0.18600
N2502       N  0.74802034  0.78662296  0.84200649     0.76200
H2503       H  0.68983802  0.74128556  0.84893484     0.10100
C2504       C  0.62017804  0.71746618  0.84772179     0.03800
C2505       C  0.58942768  0.70033727  0.85288428    -0.04900
C2506       C  0.56326148  0.66837625  0.84993947    -0.23300
C2507       C  0.56963718  0.65451404  0.84090220     0.13100
C2508       C  0.60231796  0.67024682  0.83648308    -0.12400
N2509       N  0.64212791  0.75121576  0.85068272     0.64800
H2510       H  0.58636026  0.71272107  0.85953989     0.12600
N2511       N  0.54367848  0.62628314  0.83553764     0.61400
H2512       H  0.60700796  0.65741664  0.83031583     0.08800
O2513       O  0.73893763  0.80480884  0.84651035    -0.40100
O2514       O  0.77790898  0.79350839  0.84290141    -0.39200
O2515       O  0.62948401  0.71806559  0.81313149    -0.39200
O2516       O  0.63458152  0.67430879  0.81206730    -0.36900
O2517       O  0.52190947  0.62950511  0.83056034    -0.37900
O2518       O  0.54875208  0.60319813  0.83286911    -0.34000
O2519       O  0.63950202  0.77367825  0.84600115    -0.35400
O2520       O  0.65522635  0.75719903  0.85967809    -0.39700
C2521       C  0.56200276  0.61968098  0.99500814    -0.13400
C2522       C  0.57740675  0.60338799  0.99952746     0.17000
C2523       C  0.58937749  0.58739146  0.99304994     0.03300
C2524       C  0.58902886  0.59095117  0.98218195    -0.11900
C2525       C  0.57765290  0.61101376  0.97766584    -0.03000
C2526       C  0.56179623  0.62345573  0.98413983     0.02500
C2527       C  0.58604927  0.60864617  0.01074342     0.09400
N2528       N  0.60494177  0.57025279  0.99739249     0.65700
H2529       H  0.60089524  0.58076290  0.97737843     0.18600
N2530       N  0.54734034  0.64180240  0.97991628     0.76200
H2531       H  0.55221444  0.63156217  0.99997334     0.10100
C2532       C  0.61489510  0.63784088  0.01394820     0.03800
C2533       C  0.62227161  0.64394419  0.02455437    -0.04900
C2534       C  0.60123431  0.62157541  0.03224485    -0.23300
C2535       C  0.57212053  0.59219359  0.02901990     0.13100
C2536       C  0.56485359  0.58593556  0.01828895    -0.12400
N2537       N  0.63669003  0.66196777  0.00649280     0.64800
H2538       H  0.64463531  0.66678030  0.02674600     0.12600
N2539       N  0.54963557  0.56859668  0.03644570     0.61400
H2540       H  0.54239813  0.56357423  0.01584604     0.08800
O2541       O  0.56300160  0.67301925  0.98068935    -0.40100
O2542       O  0.51643586  0.62679842  0.97792255    -0.39200
O2543       O  0.58924452  0.53893904  0.99740709    -0.39200
O2544       O  0.63614949  0.58577396  0.99885245    -0.36900
O2545       O  0.52400448  0.56966426  0.03912348    -0.37900
O2546       O  0.55078611  0.54254359  0.03818823    -0.34000
O2547       O  0.63437480  0.68740776  0.00479698    -0.35400
O2548       O  0.66248868  0.66167701  0.00352834    -0.39700
C2549       C  0.54767524  0.64941232  0.90864133    -0.13400
C2550       C  0.55273227  0.62993232  0.90136514     0.17000
C2551       C  0.56774074  0.61163881  0.90490898     0.03300
C2552       C  0.57856527  0.61441552  0.91533110    -0.11900
C2553       C  0.57450369  0.63481596  0.92249630    -0.03000
C2554       C  0.55795561  0.65171959  0.91909932     0.02500
C2555       C  0.54616333  0.63260821  0.89000565     0.09400
N2556       N  0.57252325  0.59030433  0.89804268     0.65700
H2557       H  0.59088794  0.60095745  0.91776850     0.18600
N2558       N  0.55358655  0.67340882  0.92590544     0.76200
H2559       H  0.53735428  0.66455883  0.90608324     0.10100
C2560       C  0.51566480  0.62875511  0.88634921     0.03800
C2561       C  0.51206031  0.63489052  0.87580938    -0.04900
C2562       C  0.53840091  0.64571495  0.86842633    -0.23300
C2563       C  0.56876035  0.64778340  0.87218007     0.13100
C2564       C  0.57215742  0.64212670  0.88281221    -0.12400
N2565       N  0.48789882  0.61874043  0.89322173     0.64800
H2566       H  0.48833603  0.63212424  0.87340224     0.12600
N2567       N  0.59581923  0.65297454  0.86553515     0.61400
H2568       H  0.59587225  0.64545780  0.88547951     0.08800
O2569       O  0.52521971  0.66370248  0.92987506    -0.40100
O2570       O  0.57490065  0.70400670  0.92580175    -0.39200
O2571       O  0.60170025  0.59892058  0.89500872    -0.39200
O2572       O  0.55008626  0.56012957  0.89749426    -0.36900
O2573       O  0.59500805  0.62808995  0.86140353    -0.37900
O2574       O  0.62400258  0.67864424  0.86690787    -0.34000
O2575       O  0.48063776  0.64006517  0.89622585    -0.35400
O2576       O  0.46615089  0.58835149  0.89391209    -0.39700
C2577       C  0.57741714  0.96674231  0.99471209    -0.13400
C2578       C  0.60450286  0.99180726  0.00031118     0.17000
C2579       C  0.63129632  0.01745908  0.99468336     0.03300
C2580       C  0.63143628  0.01655284  0.98373725    -0.11900
C2581       C  0.60561907  0.99023946  0.97813755    -0.03000
C2582       C  0.57773932  0.96563743  0.98372504     0.02500
C2583       C  0.60707486  0.98723062  0.01174221     0.09400
N2584       N  0.66023197  0.04277916  0.99989790     0.65700
H2585       H  0.65304632  0.03569351  0.97961091     0.18600
N2586       N  0.55123442  0.93760912  0.97853700     0.76200
H2587       H  0.55685155  0.94666200  0.99893555     0.10100
C2588       C  0.60812468  0.00959263  0.01934821     0.03800
C2589       C  0.61275401  0.00472579  0.02992098    -0.04900
C2590       C  0.61644897  0.97795454  0.03312207    -0.23300
C2591       C  0.61392930  0.95480035  0.02559630     0.13100
C2592       C  0.60939549  0.95968017  0.01502973    -0.12400
N2593       N  0.60373924  0.03685817  0.01658421     0.64800
H2594       H  0.61429903  0.02252629  0.03563849     0.12600
N2595       N  0.61459974  0.92556684  0.02857820     0.61400
H2596       H  0.60803033  0.94195518  0.00931225     0.08800
O2597       O  0.52337218  0.93598868  0.97740895    -0.40100
O2598       O  0.55282935  0.91151421  0.97764831    -0.39200
O2599       O  0.68380656  0.03755895  0.00205157    -0.39200
O2600       O  0.66622052  0.07231091  0.99946505    -0.36900
O2601       O  0.58742823  0.89938557  0.03062023    -0.37900
O2602       O  0.64032027  0.92368651  0.02671172    -0.34000
O2603       O  0.57460330  0.03262562  0.01670881    -0.35400
O2604       O  0.62833570  0.06596391  0.01735446    -0.39700
C2605       C  0.67273942  0.87383192  0.94203037    -0.13400
C2606       C  0.65572967  0.84953242  0.94970154     0.17000
C2607       C  0.63709629  0.85460081  0.95736499     0.03300
C2608       C  0.63441045  0.88302881  0.95695816    -0.11900
C2609       C  0.65007950  0.90682077  0.94900406    -0.03000
C2610       C  0.67033590  0.90253714  0.94165595     0.02500
C2611       C  0.65695244  0.81863755  0.94944155     0.09400
N2612       N  0.61930208  0.83029452  0.96528543     0.65700
H2613       H  0.61899880  0.88586176  0.96274367     0.18600
N2614       N  0.68843325  0.92674727  0.93374394     0.76200
H2615       H  0.68771016  0.87031165  0.93624409     0.10100
C2616       C  0.64264870  0.79633431  0.94106140     0.03800
C2617       C  0.64323652  0.76679106  0.94112853    -0.04900
C2618       C  0.65700596  0.75848987  0.94957941    -0.23300
C2619       C  0.67260262  0.78140542  0.95777101     0.13100
C2620       C  0.67248435  0.81134930  0.95763285    -0.12400
N2621       N  0.62531032  0.80218759  0.93280954     0.64800
H2622       H  0.63097208  0.74933690  0.93482211     0.12600
N2623       N  0.68945488  0.77512326  0.96607256     0.61400
H2624       H  0.68434329  0.82888288  0.96395745     0.08800
O2625       O  0.67723480  0.92163095  0.92450887    -0.40100
O2626       O  0.71869357  0.94816518  0.93535030    -0.39200
O2627       O  0.63083183  0.83527708  0.97447873    -0.39200
O2628       O  0.58919074  0.80840930  0.96370940    -0.36900
O2629       O  0.72004609  0.78444349  0.96507019    -0.37900
O2630       O  0.67638758  0.76770580  0.97504678    -0.34000
O2631       O  0.63828126  0.80986507  0.92382567    -0.35400
O2632       O  0.59454239  0.79204614  0.93382891    -0.39700
C2633       C  0.55879291  0.93051843  0.88368004    -0.13400
C2634       C  0.53132135  0.91347616  0.89029712     0.17000
C2635       C  0.50143235  0.88767687  0.88616731     0.03300
C2636       C  0.50080434  0.87698410  0.87593345    -0.11900
C2637       C  0.52942743  0.89138398  0.86938026    -0.03000
C2638       C  0.55774463  0.92132327  0.87320981     0.02500
C2639       C  0.53539761  0.92301387  0.90147415     0.09400
N2640       N  0.47105467  0.87298820  0.89203237     0.65700
H2641       H  0.47761663  0.85612406  0.87323307     0.18600
N2642       N  0.58370128  0.94531144  0.86662267     0.76200
H2643       H  0.58115487  0.95211640  0.88660306     0.10100
C2644       C  0.53563861  0.90162676  0.90924994     0.03800
C2645       C  0.54700002  0.91368030  0.91930479    -0.04900
C2646       C  0.55954439  0.94722017  0.92178242    -0.23300
C2647       C  0.55697751  0.96806683  0.91421631     0.13100
C2648       C  0.54487499  0.95575888  0.90416344    -0.12400
N2649       N  0.52871468  0.86892060  0.90678540     0.64800
H2650       H  0.54874189  0.89714305  0.92492983     0.12600
N2651       N  0.56773232  0.00199512  0.91640721     0.61400
H2652       H  0.54467666  0.97239253  0.89824430     0.08800
O2653       O  0.61365579  0.95362469  0.86859012    -0.40100
O2654       O  0.57812437  0.96524614  0.86150726    -0.39200
O2655       O  0.45187299  0.88468331  0.89098159    -0.39200
O2656       O  0.45912327  0.84378494  0.89546969    -0.36900
O2657       O  0.59603577  0.02439996  0.91324414    -0.37900
O2658       O  0.54627463  0.00972146  0.91899228    -0.34000
O2659       O  0.55235143  0.86509016  0.90366172    -0.35400
O2660       O  0.50306918  0.84436039  0.91063056    -0.39700
C2661       C  0.35961423  0.98188192  0.99715263    -0.13400
C2662       C  0.38446739  0.01361305  0.00029175     0.17000
C2663       C  0.40329038  0.03751779  0.99255965     0.03300
C2664       C  0.39437269  0.03039945  0.98198000    -0.11900
C2665       C  0.36702475  0.99974024  0.97897045    -0.03000
C2666       C  0.35088452  0.97467255  0.98663405     0.02500
C2667       C  0.38597767  0.02143335  0.01159284     0.09400
N2668       N  0.43129805  0.06901943  0.99526837     0.65700
H2669       H  0.40761421  0.04970912  0.97619098     0.18600
N2670       N  0.32440040  0.94220302  0.98398481     0.76200
H2671       H  0.34530838  0.96304911  0.00298231     0.10100
C2672       C  0.37484074  0.04278448  0.01515775     0.03800
C2673       C  0.36648342  0.04211108  0.02566226    -0.04900
C2674       C  0.36781785  0.01981910  0.03279640    -0.23300
C2675       C  0.38130375  0.00021396  0.02945709     0.13100
C2676       C  0.39040737  0.00133041  0.01891871    -0.12400
N2677       N  0.36773704  0.06227823  0.00808067     0.64800
H2678       H  0.35664856  0.05777023  0.02807227     0.12600
N2679       N  0.38325713  0.97705541  0.03635136     0.61400
H2680       H  0.39850519  0.98448150  0.01626655     0.08800
O2681       O  0.29454899  0.93465053  0.98567031    -0.40100
O2682       O  0.33102089  0.91933692  0.98268165    -0.39200
O2683       O  0.45967305  0.07159266  0.99606778    -0.39200
O2684       O  0.42969005  0.09492434  0.99375160    -0.36900
O2685       O  0.35945912  0.94739353  0.03658830    -0.37900
O2686       O  0.41120276  0.98401254  0.04017217    -0.34000
O2687       O  0.33936699  0.04911560  0.00375880    -0.35400
O2688       O  0.38475222  0.09350127  0.00871323    -0.39700
C2689       C  0.30511751  0.90548157  0.91342395    -0.13400
C2690       C  0.32585906  0.92617320  0.90542109     0.17000
C2691       C  0.34987002  0.95937121  0.90778040     0.03300
C2692       C  0.35218299  0.97141386  0.91793231    -0.11900
C2693       C  0.33033922  0.95127307  0.92584946    -0.03000
C2694       C  0.30690718  0.91766380  0.92354451     0.02500
C2695       C  0.31973284  0.91378903  0.89449876     0.09400
N2696       N  0.37132753  0.98158996  0.89986869     0.65700
H2697       H  0.37014859  0.99726480  0.91946113     0.18600
N2698       N  0.28330614  0.89601088  0.93114336     0.76200
H2699       H  0.28606398  0.88016119  0.91167347     0.10100
C2700       C  0.32026420  0.88508403  0.89161505     0.03800
C2701       C  0.31486081  0.87482006  0.88118610    -0.04900
C2702       C  0.30843359  0.89223477  0.87321920    -0.23300
C2703       C  0.30436075  0.91938412  0.87656146     0.13100
C2704       C  0.31083938  0.92988494  0.88700583    -0.12400
N2705       N  0.32858028  0.86727471  0.89900377     0.64800
H2706       H  0.31722179  0.85355096  0.87917850     0.12600
N2707       N  0.29128022  0.93536372  0.87010030     0.61400
H2708       H  0.30758597  0.95032957  0.88940203     0.08800
O2709       O  0.28788359  0.87437283  0.93556646    -0.40100
O2710       O  0.25475033  0.89318449  0.93150190    -0.39200
O2711       O  0.36497472  0.00277618  0.89601162    -0.39200
O2712       O  0.40012158  0.98547246  0.89870943    -0.36900
O2713       O  0.26000002  0.92234353  0.86934117    -0.37900
O2714       O  0.30894545  0.96629905  0.86868595    -0.34000
O2715       O  0.30599818  0.83917353  0.90217641    -0.35400
O2716       O  0.35882550  0.87550936  0.90026305    -0.39700
C2717       C  0.33837577  0.34604481  0.99757839    -0.13400
C2718       C  0.32590708  0.36633258  0.00082479     0.17000
C2719       C  0.31853545  0.38393774  0.99335370     0.03300
C2720       C  0.32093644  0.37874310  0.98273361    -0.11900
C2721       C  0.32994680  0.35566269  0.97942250    -0.03000
C2722       C  0.34054105  0.34055481  0.98695455     0.02500
C2723       C  0.31821507  0.36613485  0.01197460     0.09400
N2724       N  0.30748644  0.40625279  0.99639059     0.65700
H2725       H  0.31330986  0.39108297  0.97709045     0.18600
N2726       N  0.35125860  0.31783064  0.98405735     0.76200
H2727       H  0.34462908  0.33287524  0.00333877     0.10100
C2728       C  0.28509869  0.34716132  0.01559819     0.03800
C2729       C  0.27897683  0.34275346  0.02631807    -0.04900
C2730       C  0.30536303  0.35600161  0.03357340    -0.23300
C2731       C  0.33850369  0.37568021  0.02993044     0.13100
C2732       C  0.34458039  0.38074321  0.01917107    -0.12400
N2733       N  0.25772806  0.32947691  0.00853680     0.64800
H2734       H  0.25339465  0.32726066  0.02893231     0.12600
N2735       N  0.36639313  0.38839989  0.03691041     0.61400
H2736       H  0.37013713  0.39465170  0.01638820     0.08800
O2737       O  0.33094434  0.28702452  0.98468695    -0.40100
O2738       O  0.38214723  0.32810084  0.98342491    -0.39200
O2739       O  0.32860803  0.43684346  0.99693534    -0.39200
O2740       O  0.27688439  0.39713333  0.99559882    -0.36900
O2741       O  0.38039250  0.37161308  0.03866448    -0.37900
O2742       O  0.38141406  0.41876576  0.03927634    -0.34000
O2743       O  0.24949297  0.30019433  0.00603043    -0.35400
O2744       O  0.23682596  0.33900600  0.00730592    -0.39700
C2745       C  0.28779532  0.17206196  0.95324466    -0.13400
C2746       C  0.31935325  0.17830929  0.95004642     0.17000
C2747       C  0.34316149  0.21024783  0.94654757     0.03300
C2748       C  0.33530605  0.23548621  0.94643545    -0.11900
C2749       C  0.30385960  0.22955228  0.94974356    -0.03000
C2750       C  0.27977240  0.19725022  0.95310064     0.02500
C2751       C  0.32603785  0.15055426  0.94994459     0.09400
N2752       N  0.37574197  0.21772640  0.94335149     0.65700
H2753       H  0.35420962  0.26001941  0.94383907     0.18600
N2754       N  0.24725908  0.18952695  0.95648857     0.76200
H2755       H  0.26917407  0.14735294  0.95580420     0.10100
C2756       C  0.32901504  0.13632413  0.95931590     0.03800
C2757       C  0.33103480  0.10748548  0.95902164    -0.04900
C2758       C  0.32920830  0.09167867  0.94951264    -0.23300
C2759       C  0.32668585  0.10632373  0.94006927     0.13100
C2760       C  0.32558253  0.13580466  0.94038351    -0.12400
N2761       N  0.32885210  0.15020586  0.96923327     0.64800
H2762       H  0.33290336  0.09681596  0.96636887     0.12600
N2763       N  0.32279773  0.09062247  0.93018214     0.61400
H2764       H  0.32256309  0.14628739  0.93315341     0.08800
O2765       O  0.24136973  0.18844867  0.96615755    -0.40100
O2766       O  0.22309905  0.17629031  0.95014170    -0.39200
O2767       O  0.38250973  0.22022897  0.93371973    -0.39200
O2768       O  0.39932545  0.22994377  0.94991882    -0.36900
O2769       O  0.29370405  0.07200099  0.92664952    -0.37900
O2770       O  0.34726845  0.10214667  0.92397230    -0.34000
O2771       O  0.30219125  0.13735251  0.97449469    -0.35400
O2772       O  0.35628697  0.16914356  0.97372166    -0.39700
C2773       C  0.32741489  0.40544729  0.91133485    -0.13400
C2774       C  0.31355717  0.38399023  0.90277477     0.17000
C2775       C  0.30120812  0.34988312  0.90418440     0.03300
C2776       C  0.30157169  0.33747629  0.91409740    -0.11900
C2777       C  0.31404585  0.35842060  0.92284269    -0.03000
C2778       C  0.32792629  0.39302247  0.92134656     0.02500
C2779       C  0.31198980  0.39707611  0.89234601     0.09400
N2780       N  0.28677494  0.32723994  0.89567534     0.65700
H2781       H  0.29095469  0.31091269  0.91496525     0.18600
N2782       N  0.34193474  0.41579876  0.92984463     0.76200
H2783       H  0.33754873  0.43187442  0.91025264     0.10100
C2784       C  0.28883022  0.40720137  0.89008870     0.03800
C2785       C  0.28618840  0.41694511  0.87986854    -0.04900
C2786       C  0.30829359  0.41941035  0.87174951    -0.23300
C2787       C  0.33142347  0.40851281  0.87433137     0.13100
C2788       C  0.33257639  0.39731694  0.88441689    -0.12400
N2789       N  0.26732914  0.40708598  0.89810646     0.64800
H2790       H  0.26575203  0.42107398  0.87846627     0.12600
N2791       N  0.35455424  0.40882921  0.86690055     0.61400
H2792       H  0.35026264  0.38916069  0.88611770     0.08800
O2793       O  0.32463519  0.42630682  0.93417913    -0.40100
O2794       O  0.37323003  0.43147600  0.93111713    -0.39200
O2795       O  0.30415373  0.31764836  0.89089618    -0.39200
O2796       O  0.25546184  0.31171008  0.89446686    -0.36900
O2797       O  0.38334977  0.43417549  0.86631984    -0.37900
O2798       O  0.35055775  0.38138671  0.86382891    -0.34000
O2799       O  0.24289243  0.37992222  0.90117017    -0.35400
O2800       O  0.27644005  0.43298020  0.90342833    -0.39700
C2801       C  0.92517514  0.31306170  0.99495166    -0.13400
C2802       C  0.93901581  0.34678605  0.99734065     0.17000
C2803       C  0.95393854  0.37038777  0.98919646     0.03300
C2804       C  0.95512974  0.35985808  0.97900250    -0.11900
C2805       C  0.94183633  0.32606310  0.97671173    -0.03000
C2806       C  0.92595059  0.30250629  0.98480946     0.02500
C2807       C  0.94098920  0.35593829  0.00859185     0.09400
N2808       N  0.96824026  0.40508090  0.99111108     0.65700
H2809       H  0.96739927  0.37836847  0.97292063     0.18600
N2810       N  0.91065299  0.26765605  0.98296440     0.76200
H2811       H  0.91474812  0.29458749  0.00111466     0.10100
C2812       C  0.91252883  0.34030298  0.01511799     0.03800
C2813       C  0.91639127  0.34075553  0.02599470    -0.04900
C2814       C  0.94822960  0.35611329  0.03065026    -0.23300
C2815       C  0.97646005  0.37492072  0.02420093     0.13100
C2816       C  0.97258729  0.37461340  0.01328087    -0.12400
N2817       N  0.87957277  0.32175210  0.01082599     0.64800
H2818       H  0.89423318  0.32671233  0.03074824     0.12600
N2819       N  0.00944407  0.39258583  0.02847601     0.61400
H2820       H  0.99476310  0.38663566  0.00844012     0.08800
O2821       O  0.87944691  0.25086168  0.98156344    -0.40100
O2822       O  0.92632115  0.25289958  0.98534139    -0.39200
O2823       O  0.99964466  0.42329617  0.99140405    -0.39200
O2824       O  0.95060277  0.41831146  0.98959176    -0.36900
O2825       O  0.02737251  0.37930645  0.02841111    -0.37900
O2826       O  0.02312483  0.42352834  0.02977293    -0.34000
O2827       O  0.86471190  0.29044601  0.01100018    -0.35400
O2828       O  0.86257488  0.33581692  0.00966502    -0.39700
C2829       C  0.09362257  0.30150923  0.96339603    -0.13400
C2830       C  0.09485759  0.27632050  0.95787673     0.17000
C2831       C  0.06656473  0.25285188  0.95230037     0.03300
C2832       C  0.03843142  0.25634805  0.95170011    -0.11900
C2833       C  0.03799693  0.28313413  0.95650147    -0.03000
C2834       C  0.06546158  0.30512931  0.96278105     0.02500
C2835       C  0.12722457  0.27782306  0.95692772     0.09400
N2836       N  0.06623158  0.22579043  0.94700106     0.65700
H2837       H  0.01739071  0.23872095  0.94703071     0.18600
N2838       N  0.06576404  0.33180086  0.96831390     0.76200
H2839       H  0.11529325  0.31945545  0.96778078     0.10100
C2840       C  0.14593232  0.29000901  0.94767912     0.03800
C2841       C  0.17761739  0.29376024  0.94709036    -0.04900
C2842       C  0.19199925  0.28682434  0.95571234    -0.23300
C2843       C  0.17342440  0.27507551  0.96509216     0.13100
C2844       C  0.14104813  0.27038918  0.96557454    -0.12400
N2845       N  0.13438676  0.30148775  0.93912719     0.64800
H2846       H  0.19154576  0.30351347  0.93988909     0.12600
N2847       N  0.18737010  0.26925027  0.97429711     0.61400
H2848       H  0.12703368  0.26188521  0.97280852     0.08800
O2849       O  0.08175793  0.36077921  0.96456242    -0.40100
O2850       O  0.05787707  0.32798494  0.97787012    -0.39200
O2851       O  0.05374679  0.19802769  0.95156689    -0.39200
O2852       O  0.06926027  0.22694066  0.93717902    -0.36900
O2853       O  0.20090507  0.29184945  0.98107099    -0.37900
O2854       O  0.17896323  0.23985593  0.97679631    -0.34000
O2855       O  0.14076950  0.33117264  0.93912495    -0.35400
O2856       O  0.12663728  0.28571162  0.93062166    -0.39700
C2857       C  0.76705101  0.10288475  0.93454386    -0.13400
C2858       C  0.76884645  0.13132268  0.93884819     0.17000
C2859       C  0.73936875  0.12949441  0.94258563     0.03300
C2860       C  0.70951037  0.09892454  0.94278440    -0.11900
C2861       C  0.70834367  0.06985936  0.93930896    -0.03000
C2862       C  0.73725919  0.07229383  0.93474563     0.02500
C2863       C  0.80205287  0.16181600  0.93988267     0.09400
N2864       N  0.73961254  0.15794131  0.94676044     0.65700
H2865       H  0.68752560  0.09775943  0.94616707     0.18600
N2866       N  0.73708452  0.04407258  0.93037764     0.76200
H2867       H  0.78922952  0.10427417  0.93123507     0.10100
C2868       C  0.82799001  0.16098047  0.94542473     0.03800
C2869       C  0.85953580  0.18932938  0.94597705    -0.04900
C2870       C  0.86631567  0.21919287  0.94114609    -0.23300
C2871       C  0.84039737  0.22012031  0.93554419     0.13100
C2872       C  0.80854166  0.19148927  0.93497774    -0.12400
N2873       N  0.82253753  0.13167131  0.95077983     0.64800
H2874       H  0.87876180  0.18793455  0.95043002     0.12600
N2875       N  0.84616329  0.24927006  0.93005118     0.61400
H2876       H  0.78901633  0.19223849  0.93049925     0.08800
O2877       O  0.74985207  0.02999975  0.93549833    -0.40100
O2878       O  0.73213432  0.03873527  0.92068522    -0.39200
O2879       O  0.72788287  0.17238274  0.94132427    -0.39200
O2880       O  0.74313043  0.16300749  0.95649146    -0.36900
O2881       O  0.85407624  0.25239772  0.92050345    -0.37900
O2882       O  0.83521862  0.26689377  0.93382030    -0.34000
O2883       O  0.83376987  0.11443882  0.94688951    -0.35400
O2884       O  0.81423147  0.12780673  0.96029835    -0.39700
C2885       C  0.04485533  0.36884975  0.90618421    -0.13400
C2886       C  0.04610387  0.39928392  0.90471727     0.17000
C2887       C  0.02934282  0.40856257  0.91196897     0.03300
C2888       C  0.01182287  0.38746685  0.92038051    -0.11900
C2889       C  0.01040092  0.35689578  0.92181102    -0.03000
C2890       C  0.02764230  0.34789222  0.91462389     0.02500
C2891       C  0.06164513  0.41841048  0.89491303     0.09400
N2892       N  0.03020874  0.43951114  0.91104684     0.65700
H2893       H  0.99918138  0.39515670  0.92582671     0.18600
N2894       N  0.02818782  0.31767115  0.91572336     0.76200
H2895       H  0.05658815  0.36071284  0.90054324     0.10100
C2896       C  0.09421997  0.42695164  0.89185173     0.03800
C2897       C  0.10488428  0.43716838  0.88155023    -0.04900
C2898       C  0.08325353  0.43767931  0.87378867    -0.23300
C2899       C  0.05246470  0.43427010  0.87749138     0.13100
C2900       C  0.04189931  0.42395376  0.88781145    -0.12400
N2901       N  0.11684155  0.42502995  0.89907522     0.64800
H2902       H  0.13036518  0.44422741  0.87976122     0.12600
N2903       N  0.03008151  0.43842397  0.87074925     0.61400
H2904       H  0.01699983  0.41817127  0.89005143     0.08800
O2905       O  0.05358500  0.31851139  0.91970514    -0.40100
O2906       O  0.00808869  0.29274083  0.91040900    -0.39200
O2907       O  0.00423125  0.43961616  0.90808935    -0.39200
O2908       O  0.05262974  0.46438850  0.91586620    -0.36900
O2909       O  0.00443842  0.41302434  0.86728653    -0.37900
O2910       O  0.02980041  0.46528090  0.87122610    -0.34000
O2911       O  0.12145212  0.40061096  0.89865747    -0.35400
O2912       O  0.13815123  0.45105701  0.90369507    -0.39700
C2913       C  0.01188888  0.69993693  0.99592793    -0.13400
C2914       C  0.99356646  0.66732666  0.99970372     0.17000
C2915       C  0.97585433  0.64125638  0.99256008     0.03300
C2916       C  0.97540976  0.64835883  0.98188654    -0.11900
C2917       C  0.99171522  0.68127410  0.97821228    -0.03000
C2918       C  0.01096388  0.70718537  0.98533177     0.02500
C2919       C  0.98723206  0.66282522  0.01110853     0.09400
N2920       N  0.95661333  0.60768908  0.99608758     0.65700
H2921       H  0.96068798  0.62812118  0.97655680     0.18600
N2922       N  0.02892765  0.74112227  0.98204421     0.76200
H2923       H  0.02529421  0.72020040  0.00137668     0.10100
C2924       C  0.00807497  0.65829322  0.01817578     0.03800
C2925       C  0.00433950  0.66052649  0.02900464    -0.04900
C2926       C  0.98093847  0.66851187  0.03289521    -0.23300
C2927       C  0.95963408  0.67225759  0.02576007     0.13100
C2928       C  0.96263308  0.66885109  0.01503005    -0.12400
N2929       N  0.03431904  0.65336887  0.01450557     0.64800
H2930       H  0.02112100  0.65792632  0.03434574     0.12600
N2931       N  0.93544569  0.68055483  0.02921070     0.61400
H2932       H  0.94680522  0.67283398  0.00965042     0.08800
O2933       O  0.05981131  0.75460044  0.98018500    -0.40100
O2934       O  0.01629771  0.75922204  0.98353999    -0.39200
O2935       O  0.92546552  0.59488425  0.99725246    -0.39200
O2936       O  0.96898202  0.58905762  0.99553597    -0.36900
O2937       O  0.94247814  0.71043394  0.02883658    -0.37900
O2938       O  0.90527919  0.65790311  0.03005722    -0.34000
O2939       O  0.06363031  0.67792118  0.01392496    -0.35400
O2940       O  0.03001453  0.62442494  0.01447049    -0.39700
C2941       C  0.16632122  0.89823070  0.95990924    -0.13400
C2942       C  0.15243536  0.88806687  0.94990140     0.17000
C2943       C  0.16966604  0.90773164  0.94115221     0.03300
C2944       C  0.20152081  0.93525723  0.94245625    -0.11900
C2945       C  0.21700129  0.94308183  0.95231100    -0.03000
C2946       C  0.19860189  0.92519027  0.96118492     0.02500
C2947       C  0.12128386  0.85577841  0.94874812     0.09400
N2948       N  0.15658785  0.89859570  0.93079165     0.65700
H2949       H  0.21520185  0.94881758  0.93554983     0.18600
N2950       N  0.21265312  0.93308299  0.97146694     0.76200
H2951       H  0.15260988  0.88418424  0.96674145     0.10100
C2952       C  0.11907035  0.82653035  0.95277256     0.03800
C2953       C  0.08950185  0.79633915  0.95167607    -0.04900
C2954       C  0.06162493  0.79428803  0.94660046    -0.23300
C2955       C  0.06368951  0.82356145  0.94259967     0.13100
C2956       C  0.09347064  0.85400977  0.94371121    -0.12400
N2957       N  0.14688130  0.82685078  0.95779859     0.64800
H2958       H  0.08841952  0.77428220  0.95490579     0.12600
N2959       N  0.03634246  0.82285691  0.93716542     0.61400
H2960       H  0.09480043  0.87638385  0.94068341     0.08800
O2961       O  0.22300445  0.91535066  0.97564882    -0.40100
O2962       O  0.20722409  0.95190156  0.97714464    -0.39200
O2963       O  0.14565309  0.91520603  0.92618093    -0.39200
O2964       O  0.16399474  0.88052544  0.92546332    -0.36900
O2965       O  0.03583395  0.82197999  0.92729684    -0.37900
O2966       O  0.01830517  0.83179132  0.94187423    -0.34000
O2967       O  0.14702310  0.82432693  0.96763462    -0.35400
O2968       O  0.16641100  0.82139301  0.95243923    -0.39700
C2969       C  0.77350235  0.68138691  0.95870377    -0.13400
C2970       C  0.78155837  0.66869639  0.94999455     0.17000
C2971       C  0.75703607  0.65124669  0.94232924     0.03300
C2972       C  0.72534018  0.64774055  0.94328231    -0.11900
C2973       C  0.71738334  0.66125978  0.95183020    -0.03000
C2974       C  0.74164757  0.67756615  0.95974889     0.02500
C2975       C  0.81544145  0.67322908  0.94920556     0.09400
N2976       N  0.76430340  0.63794008  0.93334349     0.65700
H2977       H  0.70716231  0.63510659  0.93712605     0.18600
N2978       N  0.73410762  0.68924617  0.96907410     0.76200
H2979       H  0.79196999  0.69399523  0.96479257     0.10100
C2980       C  0.84363659  0.70496357  0.94781255     0.03800
C2981       C  0.87548493  0.70875863  0.94754337    -0.04900
C2982       C  0.88012999  0.68138840  0.94866525    -0.23300
C2983       C  0.85176951  0.64947639  0.95011905     0.13100
C2984       C  0.81975972  0.64571584  0.95033749    -0.12400
N2985       N  0.84033087  0.73357148  0.94641258     0.64800
H2986       H  0.89673473  0.73347478  0.94640386     0.12600
N2987       N  0.85482976  0.62069063  0.95143315     0.61400
H2988       H  0.79817589  0.62124799  0.95154539     0.08800
O2989       O  0.74571187  0.71998455  0.97023987    -0.40100
O2990       O  0.72353725  0.67038458  0.97697302    -0.39200
O2991       O  0.75368293  0.60719042  0.93292033    -0.39200
O2992       O  0.77441916  0.65515078  0.92509104    -0.36900
O2993       O  0.85495296  0.61022038  0.96055002    -0.37900
O2994       O  0.84924418  0.60174170  0.94373972    -0.34000
O2995       O  0.84779726  0.75374795  0.95386680    -0.35400
O2996       O  0.83844585  0.74274403  0.93725390    -0.39700
C2997       C  0.99349866  0.65869665  0.90087878    -0.13400
C2998       C  0.01736947  0.64865691  0.90151234     0.17000
C2999       C  0.02767224  0.64404028  0.91147172     0.03300
C3000       C  0.01526692  0.65089466  0.92050454    -0.11900
C3001       C  0.99302842  0.66301443  0.91989680    -0.03000
C3002       C  0.98137195  0.66600445  0.90992254     0.02500
C3003       C  0.03491601  0.64849582  0.89181258     0.09400
N3004       N  0.05161293  0.63347627  0.91256762     0.65700
H3005       H  0.02445368  0.64818541  0.92804217     0.18600
N3006       N  0.95807282  0.67735476  0.90875898     0.76200
H3007       H  0.98563596  0.66276221  0.89328712     0.10100
C3008       C  0.01785891  0.62868623  0.88317122     0.03800
C3009       C  0.03479479  0.63296545  0.87375418    -0.04900
C3010       C  0.06924966  0.65702882  0.87236685    -0.23300
C3011       C  0.08620712  0.67696608  0.88133530     0.13100
C3012       C  0.06885942  0.67201391  0.89078437    -0.12400
N3013       N  0.98324775  0.60393926  0.88378069     0.64800
H3014       H  0.02065862  0.61691450  0.86731399     0.12600
N3015       N  0.11993930  0.70384974  0.88122772     0.61400
H3016       H  0.08183948  0.68833635  0.89729596     0.08800
O3017       O  0.92753660  0.65638038  0.90739854    -0.40100
O3018       O  0.96873665  0.70738715  0.90645593    -0.39200
O3019       O  0.08158973  0.65469217  0.91465462    -0.39200
O3020       O  0.04143026  0.60316257  0.91421432    -0.36900
O3021       O  0.14076566  0.70184800  0.88712801    -0.37900
O3022       O  0.12556160  0.73235494  0.87867077    -0.34000
O3023       O  0.96192706  0.60928314  0.87940091    -0.35400
O3024       O  0.97527173  0.57452223  0.88609086    -0.39700
C3025       C  0.32681726  0.97042285  0.34352467    -0.13400
C3026       C  0.29455097  0.96175589  0.34025702     0.17000
C3027       C  0.27013019  0.95589944  0.34785825     0.03300
C3028       C  0.27910676  0.96144835  0.35846029    -0.11900
C3029       C  0.31210878  0.97267300  0.36162135    -0.03000
C3030       C  0.33573717  0.97571748  0.35407956     0.02500
C3031       C  0.28899114  0.96292319  0.32887176     0.09400
N3032       N  0.23614565  0.94404312  0.34500129     0.65700
H3033       H  0.26046498  0.95821071  0.36417555     0.18600
N3034       N  0.36877979  0.98369177  0.35698133     0.76200
H3035       H  0.34565397  0.97435872  0.33778226     0.10100
C3036       C  0.28775331  0.99011206  0.32452785     0.03800
C3037       C  0.29173194  0.99596773  0.31375021    -0.04900
C3038       C  0.29736955  0.97549842  0.30708924    -0.23300
C3039       C  0.29670960  0.94714690  0.31131686     0.13100
C3040       C  0.29254480  0.94113283  0.32215975    -0.12400
N3041       N  0.28644489  0.01424530  0.33103632     0.64800
H3042       H  0.29248429  0.01800681  0.31063698     0.12600
N3043       N  0.30369294  0.92626418  0.30497697     0.61400
H3044       H  0.29440679  0.92065282  0.32544558     0.08800
O3045       O  0.39254993  0.01320977  0.35605424    -0.40100
O3046       O  0.37523213  0.96052183  0.35771626    -0.39200
O3047       O  0.21603455  0.91314177  0.34501285    -0.39200
O3048       O  0.22465093  0.96338990  0.34565770    -0.36900
O3049       O  0.33333189  0.93195893  0.30442847    -0.37900
O3050       O  0.27997258  0.89809310  0.30236194    -0.34000
O3051       O  0.31343874  0.03887438  0.33413645    -0.35400
O3052       O  0.25998564  0.01569880  0.33125899    -0.39700
C3053       C  0.24326456  0.30038632  0.34770598    -0.13400
C3054       C  0.26527102  0.32874115  0.34192533     0.17000
C3055       C  0.28881652  0.35742168  0.34731720     0.03300
C3056       C  0.29220292  0.35620600  0.35815357    -0.11900
C3057       C  0.27243530  0.32687452  0.36385178    -0.03000
C3058       C  0.24654776  0.29919136  0.35859438     0.02500
C3059       C  0.26595780  0.32689856  0.33034267     0.09400
N3060       N  0.31127304  0.38724876  0.34185168     0.65700
H3061       H  0.31177561  0.37797752  0.36205285     0.18600
N3062       N  0.22493469  0.26893758  0.36398129     0.76200
H3063       H  0.22440064  0.27847971  0.34367889     0.10100
C3064       C  0.27214625  0.30339718  0.32551558     0.03800
C3065       C  0.27676449  0.30446390  0.31473586    -0.04900
C3066       C  0.27555731  0.32863648  0.30850921    -0.23300
C3067       C  0.26757731  0.35108259  0.31317330     0.13100
C3068       C  0.26281227  0.35001620  0.32405273    -0.12400
N3069       N  0.27617658  0.27966648  0.33149842     0.64800
H3070       H  0.28264840  0.28687695  0.31125056     0.12600
N3071       N  0.26664627  0.37650399  0.30716397     0.61400
H3072       H  0.25766325  0.36794873  0.32764024     0.08800
O3073       O  0.23045928  0.24513705  0.36338249    -0.40100
O3074       O  0.19631002  0.26311209  0.36670242    -0.39200
O3075       O  0.30599673  0.41127440  0.34189735    -0.39200
O3076       O  0.33968842  0.39226003  0.33922720    -0.36900
O3077       O  0.23878393  0.37246332  0.30424150    -0.37900
O3078       O  0.29204553  0.40525515  0.30698227    -0.34000
O3079       O  0.25292081  0.24974631  0.33155553    -0.35400
O3080       O  0.30515082  0.28661043  0.33429239    -0.39700
C3081       C  0.34298636  0.14618937  0.38615833    -0.13400
C3082       C  0.31677821  0.14436655  0.39213416     0.17000
C3083       C  0.29428734  0.11398798  0.39704630     0.03300
C3084       C  0.29910859  0.08672358  0.39622445    -0.11900
C3085       C  0.32619729  0.08900054  0.39061820    -0.03000
C3086       C  0.34803124  0.11910107  0.38540762     0.02500
C3087       C  0.31313874  0.17423739  0.39289723     0.09400
N3088       N  0.26707076  0.11064902  0.40319815     0.65700
H3089       H  0.28202313  0.06389724  0.40026425     0.18600
N3090       N  0.37487590  0.12245162  0.37905103     0.76200
H3091       H  0.35957471  0.16878823  0.38193645     0.10100
C3092       C  0.34006054  0.20514209  0.39612073     0.03800
C3093       C  0.33655293  0.23314167  0.39623199    -0.04900
C3094       C  0.30661993  0.23151630  0.39317248    -0.23300
C3095       C  0.27961687  0.20064349  0.38989078     0.13100
C3096       C  0.28314288  0.17244216  0.38977382    -0.12400
N3097       N  0.37115728  0.20862052  0.39945932     0.64800
H3098       H  0.35769912  0.25645255  0.39877354     0.12600
N3099       N  0.24883944  0.19749522  0.38637348     0.61400
H3100       H  0.26256955  0.14918579  0.38696376     0.08800
O3101       O  0.40442405  0.13869915  0.38248290    -0.40100
O3102       O  0.37011820  0.11698016  0.36935912    -0.39200
O3103       O  0.23779215  0.09488511  0.39952857    -0.39200
O3104       O  0.27111895  0.11600669  0.41290798    -0.36900
O3105       O  0.24389010  0.19818303  0.37668220    -0.37900
O3106       O  0.22423198  0.18583227  0.39253153    -0.34000
O3107       O  0.39607967  0.22256548  0.39343529    -0.35400
O3108       O  0.37590823  0.20649418  0.40909017    -0.39700
C3109       C  0.61678513  0.66667669  0.35566005    -0.13400
C3110       C  0.64539011  0.67481584  0.34974446     0.17000
C3111       C  0.67538305  0.68301073  0.35497658     0.03300
C3112       C  0.67587222  0.68104582  0.36589475    -0.11900
C3113       C  0.64684563  0.67086068  0.37183800    -0.03000
C3114       C  0.61727043  0.66484607  0.36664100     0.02500
C3115       C  0.64299657  0.67207715  0.33816550     0.09400
N3116       N  0.70493846  0.69076781  0.34929094     0.65700
H3117       H  0.69882629  0.68584592  0.36971336     0.18600
N3118       N  0.58690716  0.65438521  0.37224050     0.76200
H3119       H  0.59361008  0.66044931  0.35170392     0.10100
C3120       C  0.62663987  0.64076149  0.33332961     0.03800
C3121       C  0.62676503  0.63850476  0.32244420    -0.04900
C3122       C  0.64262702  0.66696476  0.31606887    -0.23300
C3123       C  0.65730782  0.69847194  0.32087624     0.13100
C3124       C  0.65780617  0.70074263  0.33187399    -0.12400
N3125       N  0.61087266  0.61085256  0.33937252     0.64800
H3126       H  0.61480488  0.61401846  0.31896126     0.12600
N3127       N  0.67261512  0.72830789  0.31481781     0.61400
H3128       H  0.67003998  0.72497161  0.33552511     0.08800
O3129       O  0.56602108  0.62377203  0.37305191    -0.40100
O3130       O  0.57741177  0.67502275  0.37384372    -0.39200
O3131       O  0.72785123  0.72068090  0.34842966    -0.39200
O3132       O  0.71149201  0.66806186  0.34753224    -0.36900
O3133       O  0.65612747  0.74247980  0.31279904    -0.37900
O3134       O  0.70403945  0.74458325  0.31400089    -0.34000
O3135       O  0.57947078  0.59528030  0.34030319    -0.35400
O3136       O  0.62679636  0.59610094  0.34138758    -0.39700
C3137       C  0.53289091  0.48159835  0.39708640    -0.13400
C3138       C  0.50595909  0.48163838  0.39203504     0.17000
C3139       C  0.51017583  0.51145762  0.38787731     0.03300
C3140       C  0.54046960  0.54084511  0.38917545    -0.11900
C3141       C  0.56686700  0.54156491  0.39483322    -0.03000
C3142       C  0.56329663  0.51134911  0.39857801     0.02500
C3143       C  0.47223177  0.45207201  0.39266253     0.09400
N3144       N  0.48316455  0.51270521  0.38289379     0.65700
H3145       H  0.54265193  0.56357202  0.38612001     0.18600
N3146       N  0.58908519  0.51060918  0.40453715     0.76200
H3147       H  0.52960600  0.45875449  0.40044079     0.10100
C3148       C  0.46175930  0.42454267  0.38606195     0.03800
C3149       C  0.42877943  0.39801355  0.38664870    -0.04900
C3150       C  0.40593398  0.39842473  0.39377517    -0.23300
C3151       C  0.41709689  0.42557789  0.40068379     0.13100
C3152       C  0.44992515  0.45209052  0.40001037    -0.12400
N3153       N  0.48398208  0.42353072  0.37855953     0.64800
H3154       H  0.42085539  0.37733564  0.38133773     0.12600
N3155       N  0.39588764  0.42634147  0.40862953     0.61400
H3156       H  0.45811394  0.47295833  0.40526757     0.08800
O3157       O  0.60682777  0.50046029  0.40029800    -0.40100
O3158       O  0.58880709  0.51243052  0.41438151    -0.39200
O3159       O  0.46636231  0.52215332  0.38807839    -0.39200
O3160       O  0.48171772  0.51263285  0.37303396    -0.36900
O3161       O  0.39657767  0.41562467  0.41766131    -0.37900
O3162       O  0.38343918  0.44475858  0.40741708    -0.34000
O3163       O  0.49743200  0.40633288  0.38047128    -0.35400
O3164       O  0.48398733  0.43314542  0.36931191    -0.39700
C3165       C  0.62838257  0.94755113  0.35269694    -0.13400
C3166       C  0.65986518  0.96257107  0.34789833     0.17000
C3167       C  0.68873690  0.97522913  0.35422321     0.03300
C3168       C  0.68582966  0.97477504  0.36511718    -0.11900
C3169       C  0.65460910  0.96286461  0.36989381    -0.03000
C3170       C  0.62549249  0.94775882  0.36360720     0.02500
C3171       C  0.66215793  0.97068630  0.33659403     0.09400
N3172       N  0.72136521  0.99075033  0.34970418     0.65700
H3173       H  0.70846799  0.98648503  0.36978951     0.18600
N3174       N  0.59290865  0.93366103  0.36809944     0.76200
H3175       H  0.60600426  0.93786253  0.34793249     0.10100
C3176       C  0.64758664  0.94611835  0.32880844     0.03800
C3177       C  0.64737084  0.95531374  0.31835869    -0.04900
C3178       C  0.66071647  0.98873987  0.31550372    -0.23300
C3179       C  0.67522989  0.01332783  0.32336112     0.13100
C3180       C  0.67595011  0.00408256  0.33373704    -0.12400
N3181       N  0.63260853  0.91172873  0.33137703     0.64800
H3182       H  0.63600852  0.93606450  0.31248660     0.12600
N3183       N  0.68935115  0.04782402  0.32102805     0.61400
H3184       H  0.68635367  0.02316546  0.33968919     0.08800
O3185       O  0.57595590  0.90265755  0.36946900    -0.40100
O3186       O  0.57824174  0.95026932  0.36807240    -0.39200
O3187       O  0.73877326  0.02202423  0.34952055    -0.39200
O3188       O  0.73557159  0.97395430  0.34853671    -0.36900
O3189       O  0.67165409  0.06111728  0.32218680    -0.37900
O3190       O  0.72073526  0.06603762  0.32064035    -0.34000
O3191       O  0.60115448  0.89411920  0.33169995    -0.35400
O3192       O  0.64978418  0.89775850  0.33061056    -0.39700
C3193       C  0.56116811  0.05537785  0.38738886    -0.13400
C3194       C  0.53786316  0.04432772  0.39553148     0.17000
C3195       C  0.54399843  0.03199322  0.40479958     0.03300
C3196       C  0.57284546  0.02992859  0.40570267    -0.11900
C3197       C  0.59540540  0.03889075  0.39734015    -0.03000
C3198       C  0.58986373  0.05266695  0.38817429     0.02500
C3199       C  0.50489378  0.04050870  0.39366146     0.09400
N3200       N  0.51959880  0.01841465  0.41294397     0.65700
H3201       H  0.57632873  0.01909882  0.41277664     0.18600
N3202       N  0.61183782  0.06228284  0.37938925     0.76200
H3203       H  0.55612984  0.06443956  0.38017941     0.10100
C3204       C  0.49649691  0.06362379  0.39736768     0.03800
C3205       C  0.46370608  0.05699825  0.39637693    -0.04900
C3206       C  0.43905714  0.02753110  0.39170856    -0.23300
C3207       C  0.44808267  0.00518607  0.38750716     0.13100
C3208       C  0.48086353  0.01183417  0.38857337    -0.12400
N3209       N  0.52089647  0.09381986  0.40216966     0.64800
H3210       H  0.45744236  0.07475235  0.39947965     0.12600
N3211       N  0.42477375  0.97620623  0.38189727     0.61400
H3212       H  0.48751543  0.99423923  0.38556630     0.08800
O3213       O  0.63215841  0.09270920  0.37782045    -0.40100
O3214       O  0.60490148  0.04210006  0.37196282    -0.39200
O3215       O  0.49949445  0.98751284  0.41323611    -0.39200
O3216       O  0.52321683  0.03558900  0.42095625    -0.36900
O3217       O  0.42592740  0.97675653  0.37203727    -0.37900
O3218       O  0.41023844  0.94857747  0.38657741    -0.34000
O3219       O  0.53401142  0.12027660  0.39685458    -0.35400
O3220       O  0.52278415  0.09551610  0.41201770    -0.39700
C3221       C  0.00519489  0.29405398  0.34688959    -0.13400
C3222       C  0.03739908  0.31754211  0.34348917     0.17000
C3223       C  0.06082412  0.33946506  0.35086960     0.03300
C3224       C  0.05131850  0.33831465  0.36131921    -0.11900
C3225       C  0.01840911  0.31647507  0.36452177    -0.03000
C3226       C  0.99544408  0.29344609  0.35726401     0.02500
C3227       C  0.04307885  0.32300345  0.33206233     0.09400
N3228       N  0.09367244  0.36445490  0.34777712     0.65700
H3229       H  0.06917235  0.35626606  0.36677648     0.18600
N3230       N  0.96175042  0.27012481  0.36015421     0.76200
H3231       H  0.98659559  0.27771029  0.34129263     0.10100
C3232       C  0.03730055  0.29711953  0.32513647     0.03800
C3233       C  0.03500089  0.30120109  0.31435604    -0.04900
C3234       C  0.03714811  0.33024610  0.31035850    -0.23300
C3235       C  0.04471627  0.35673726  0.31721154     0.13100
C3236       C  0.04785594  0.35298383  0.32792868    -0.12400
N3237       N  0.03151323  0.26580023  0.32893940     0.64800
H3238       H  0.02881599  0.28050065  0.30920213     0.12600
N3239       N  0.04761714  0.38703981  0.31351717     0.61400
H3240       H  0.05130985  0.37274440  0.33312262     0.08800
O3241       O  0.95376170  0.24043457  0.36201351    -0.40100
O3242       O  0.93904552  0.27681018  0.35820675    -0.39200
O3243       O  0.10024956  0.39411485  0.34691390    -0.39200
O3244       O  0.11741737  0.35872994  0.34875192    -0.36900
O3245       O  0.02272580  0.39109972  0.31416383    -0.37900
O3246       O  0.07634828  0.41202170  0.31223446    -0.34000
O3247       O  0.00199176  0.24148119  0.32915658    -0.35400
O3248       O  0.05557010  0.26037011  0.32921768    -0.39700
C3249       C  0.87457597  0.18209390  0.39891437    -0.13400
C3250       C  0.84444323  0.18175935  0.40037411     0.17000
C3251       C  0.84489594  0.21194105  0.40148870     0.03300
C3252       C  0.87513774  0.24190349  0.40078096    -0.11900
C3253       C  0.90539614  0.24255999  0.39903946    -0.03000
C3254       C  0.90503265  0.21212203  0.39832011     0.02500
C3255       C  0.81279716  0.14965378  0.40066872     0.09400
N3256       N  0.81472793  0.21265712  0.40298355     0.65700
H3257       H  0.87474673  0.26485948  0.40142124     0.18600
N3258       N  0.93499273  0.21105777  0.39674154     0.76200
H3259       H  0.87439562  0.15886715  0.39817839     0.10100
C3260       C  0.79962915  0.13069541  0.39153784     0.03800
C3261       C  0.77014540  0.10000386  0.39204132    -0.04900
C3262       C  0.75319749  0.08754940  0.40154671    -0.23300
C3263       C  0.76683757  0.10625627  0.41077018     0.13100
C3264       C  0.79636059  0.13722466  0.41023313    -0.12400
N3265       N  0.81546707  0.14266137  0.38163025     0.64800
H3266       H  0.76004800  0.08620772  0.38485904     0.12600
N3267       N  0.75216612  0.09356117  0.42077625     0.61400
H3268       H  0.80685603  0.15136975  0.41733448     0.08800
O3269       O  0.94153798  0.20501115  0.38772461    -0.40100
O3270       O  0.94970035  0.20759266  0.40456187    -0.39200
O3271       O  0.80807036  0.21895463  0.41194767    -0.39200
O3272       O  0.79961633  0.21519321  0.39511198    -0.36900
O3273       O  0.76204944  0.07723885  0.42608545    -0.37900
O3274       O  0.73630179  0.10541075  0.42526753    -0.34000
O3275       O  0.83229407  0.13087050  0.37777142    -0.35400
O3276       O  0.80619790  0.15845469  0.37580207    -0.39700
C3277       C  0.03283137  0.70569735  0.34529328    -0.13400
C3278       C  0.00593590  0.68642360  0.33858665     0.17000
C3279       C  0.97397440  0.66596736  0.34290418     0.03300
C3280       C  0.96960996  0.66392775  0.35374959    -0.11900
C3281       C  0.99669706  0.68159693  0.36060277    -0.03000
C3282       C  0.02855956  0.70343528  0.35623563     0.02500
C3283       C  0.01199334  0.68296266  0.32740146     0.09400
N3284       N  0.94590159  0.64564982  0.33636835     0.65700
H3285       H  0.94486363  0.64718389  0.35680693     0.18600
N3286       N  0.05713118  0.72240480  0.36271492     0.76200
H3287       H  0.05758976  0.72122939  0.34205076     0.10100
C3288       C  0.01643662  0.70660366  0.31969429     0.03800
C3289       C  0.01623866  0.69901360  0.30906429    -0.04900
C3290       C  0.01134470  0.66800953  0.30600129    -0.23300
C3291       C  0.01021294  0.64582303  0.31378013     0.13100
C3292       C  0.01055490  0.65349478  0.32434767    -0.12400
N3293       N  0.01879741  0.73732317  0.32244925     0.64800
H3294       H  0.01715892  0.71635053  0.30320881     0.12600
N3295       N  0.00755958  0.61486587  0.31111135     0.61400
H3296       H  0.00810112  0.63556367  0.33022991     0.08800
O3297       O  0.06703657  0.75268017  0.36423417    -0.40100
O3298       O  0.07683056  0.71169383  0.36452377    -0.39200
O3299       O  0.93683695  0.61540972  0.33522098    -0.39200
O3300       O  0.92616750  0.65570543  0.33379608    -0.36900
O3301       O  0.03379076  0.61302483  0.31068606    -0.37900
O3302       O  0.97960650  0.58850003  0.31187680    -0.34000
O3303       O  0.04703742  0.76350486  0.32227244    -0.35400
O3304       O  0.99275714  0.73954936  0.32226314    -0.39700
C3305       C  0.93796858  0.50265225  0.39279167    -0.13400
C3306       C  0.96787487  0.50255963  0.39126302     0.17000
C3307       C  0.99736568  0.53261039  0.38907744     0.03300
C3308       C  0.99665952  0.56210519  0.38847254    -0.11900
C3309       C  0.96692191  0.56261676  0.39004189    -0.03000
C3310       C  0.93715477  0.53230213  0.39216716     0.02500
C3311       C  0.96759983  0.47074137  0.39114158     0.09400
N3312       N  0.02852621  0.53374666  0.38772420     0.65700
H3313       H  0.01989602  0.58490668  0.38691985     0.18600
N3314       N  0.90591287  0.53092199  0.39362163     0.76200
H3315       H  0.91502949  0.47949463  0.39429596     0.10100
C3316       C  0.96115727  0.45120500  0.40021814     0.03800
C3317       C  0.96173225  0.42155790  0.39973620    -0.04900
C3318       C  0.96882041  0.41092607  0.39032821    -0.23300
C3319       C  0.97422051  0.43004916  0.38116970     0.13100
C3320       C  0.97363690  0.45971045  0.38166870    -0.12400
N3321       N  0.95549824  0.46180830  0.41007405     0.64800
H3322       H  0.95785812  0.40745177  0.40688169     0.12600
N3323       N  0.97941649  0.41938438  0.37125850     0.61400
H3324       H  0.97781142  0.47421796  0.37459640     0.08800
O3325       O  0.89474527  0.52844045  0.40277364    -0.40100
O3326       O  0.88617539  0.52351801  0.38595573    -0.39200
O3327       O  0.04018162  0.53662647  0.37862603    -0.39200
O3328       O  0.04759995  0.53995439  0.39551001    -0.36900
O3329       O  0.95447672  0.40160283  0.36552652    -0.37900
O3330       O  0.00824747  0.43403866  0.36726700    -0.34000
O3331       O  0.92624390  0.44783708  0.41374241    -0.35400
O3332       O  0.97998300  0.47849596  0.41609106    -0.39700
C3333       C  0.85051343  0.65614834  0.41120787    -0.13400
C3334       C  0.84325664  0.67582148  0.40463390     0.17000
C3335       C  0.86677576  0.69619253  0.39705266     0.03300
C3336       C  0.89612145  0.69493837  0.39571967    -0.11900
C3337       C  0.90197959  0.67303931  0.40169043    -0.03000
C3338       C  0.87952056  0.65447303  0.40978018     0.02500
C3339       C  0.80912165  0.67074615  0.40483665     0.09400
N3340       N  0.85990276  0.71599138  0.39005316     0.65700
H3341       H  0.91316335  0.70935633  0.38948249     0.18600
N3342       N  0.88554765  0.63351922  0.41653122     0.76200
H3343       H  0.83270028  0.64073496  0.41714983     0.10100
C3344       C  0.78226821  0.64058387  0.40126566     0.03800
C3345       C  0.74984501  0.63496907  0.40172455    -0.04900
C3346       C  0.74306753  0.65892096  0.40571753    -0.23300
C3347       C  0.76998112  0.68908623  0.40955986     0.13100
C3348       C  0.80284483  0.69482670  0.40900911    -0.12400
N3349       N  0.78763473  0.61547996  0.39693977     0.64800
H3350       H  0.72986049  0.61166376  0.39870765     0.12600
N3351       N  0.76447185  0.71351278  0.41435319     0.61400
H3352       H  0.82339611  0.71781633  0.41199981     0.08800
O3353       O  0.86880442  0.60247288  0.41531535    -0.40100
O3354       O  0.90105790  0.64511473  0.42501527    -0.39200
O3355       O  0.87548500  0.74711036  0.39111563    -0.39200
O3356       O  0.84457058  0.70347056  0.38160902    -0.36900
O3357       O  0.76089567  0.71285626  0.42415236    -0.37900
O3358       O  0.77172320  0.73973032  0.40937822    -0.34000
O3359       O  0.78086878  0.59015055  0.40235098    -0.35400
O3360       O  0.79175113  0.61507465  0.38720125    -0.39700
C3361       C  0.05879239  0.42692589  0.45460141    -0.13400
C3362       C  0.07911811  0.41598126  0.45021057     0.17000
C3363       C  0.10607988  0.41898864  0.45609727     0.03300
C3364       C  0.10990410  0.42920774  0.46651036    -0.11900
C3365       C  0.08631081  0.43505052  0.47172448    -0.03000
C3366       C  0.06285436  0.43772766  0.46502288     0.02500
C3367       C  0.07218704  0.40295406  0.43935828     0.09400
N3368       N  0.13114079  0.41378812  0.45150711     0.65700
H3369       H  0.13246480  0.43311028  0.47025382     0.18600
N3370       N  0.04432430  0.45312999  0.46821318     0.76200
H3371       H  0.03959771  0.42738750  0.44984148     0.10100
C3372       C  0.06094171  0.36928856  0.43721390     0.03800
C3373       C  0.04918186  0.35659956  0.42719306    -0.04900
C3374       C  0.04810113  0.37674106  0.41918457    -0.23300
C3375       C  0.06082270  0.41084151  0.42121758     0.13100
C3376       C  0.07277731  0.42354785  0.43122726    -0.12400
N3377       N  0.05846545  0.34690907  0.44530720     0.64800
H3378       H  0.03927379  0.33036369  0.42582225     0.12600
N3379       N  0.05890001  0.43227601  0.41356516     0.61400
H3380       H  0.08102478  0.44936320  0.43280796     0.08800
O3381       O  0.01281623  0.43613082  0.46819290    -0.40100
O3382       O  0.05770908  0.48404545  0.46685011    -0.39200
O3383       O  0.15610370  0.43813955  0.44728793    -0.39200
O3384       O  0.13362811  0.38930024  0.45449522    -0.36900
O3385       O  0.03380826  0.43612085  0.41348120    -0.37900
O3386       O  0.08503503  0.45286722  0.40876362    -0.34000
O3387       O  0.03199535  0.33223673  0.45064077    -0.35400
O3388       O  0.07774288  0.33516400  0.44510974    -0.39700
C3389       C  0.95067056  0.33649862  0.51428116    -0.13400
C3390       C  0.96322586  0.36473739  0.50785824     0.17000
C3391       C  0.94391381  0.37994937  0.50671281     0.03300
C3392       C  0.91466876  0.36903167  0.51250690    -0.11900
C3393       C  0.90108425  0.34097620  0.51926394    -0.03000
C3394       C  0.92010456  0.32416657  0.51983161     0.02500
C3395       C  0.99602484  0.37840283  0.50221582     0.09400
N3396       N  0.95419748  0.40781963  0.49992282     0.65700
H3397       H  0.90440902  0.38503101  0.51189547     0.18600
N3398       N  0.91102653  0.29642035  0.52666016     0.76200
H3399       H  0.96503745  0.32413147  0.51516803     0.10100
C3400       C  0.02715316  0.39881048  0.50709570     0.03800
C3401       C  0.05641487  0.41645108  0.50100702    -0.04900
C3402       C  0.05599547  0.41449843  0.48992316    -0.23300
C3403       C  0.02523334  0.38862158  0.48541003     0.13100
C3404       C  0.99588789  0.37268649  0.49150344    -0.12400
N3405       N  0.02937073  0.40350659  0.51816735     0.64800
H3406       H  0.07936083  0.43387319  0.50495716     0.12600
N3407       N  0.02284706  0.37495559  0.47521006     0.61400
H3408       H  0.97252301  0.35495297  0.48781276     0.08800
O3409       O  0.92637712  0.30158687  0.53525158    -0.40100
O3410       O  0.89874721  0.26792548  0.52267715    -0.39200
O3411       O  0.94350631  0.40277086  0.49062557    -0.39200
O3412       O  0.96448839  0.43603970  0.50390499    -0.36900
O3413       O  0.02974466  0.35218676  0.47434712    -0.37900
O3414       O  0.00174879  0.37461652  0.46886012    -0.34000
O3415       O  0.03981287  0.38817664  0.52373396    -0.35400
O3416       O  0.02906686  0.42827998  0.52194265    -0.39700
C3417       C  0.31628553  0.42518195  0.45222632    -0.13400
C3418       C  0.28685606  0.39473969  0.45066593     0.17000
C3419       C  0.26551791  0.37961246  0.45920451     0.03300
C3420       C  0.27379856  0.39471572  0.46901830    -0.11900
C3421       C  0.30366508  0.42540032  0.47096474    -0.03000
C3422       C  0.32529626  0.44050269  0.46214604     0.02500
C3423       C  0.28206663  0.37634770  0.44070945     0.09400
N3424       N  0.23566547  0.34811440  0.45815960     0.65700
H3425       H  0.25692733  0.38141405  0.47541069     0.18600
N3426       N  0.35778694  0.46917056  0.46298882     0.76200
H3427       H  0.33354443  0.43637256  0.44575592     0.10100
C3428       C  0.27377901  0.38575344  0.43115240     0.03800
C3429       C  0.27315554  0.36952929  0.42184893    -0.04900
C3430       C  0.28103188  0.34408007  0.42179149    -0.23300
C3431       C  0.28793931  0.33383002  0.43146646     0.13100
C3432       C  0.28827312  0.34988235  0.44074937    -0.12400
N3433       N  0.26619181  0.41184401  0.43069555     0.64800
H3434       H  0.26775068  0.37789434  0.41456393     0.12600
N3435       N  0.29614383  0.30817096  0.43201656     0.61400
H3436       H  0.29470549  0.34240139  0.44803067     0.08800
O3437       O  0.38302157  0.46599016  0.46162655    -0.40100
O3438       O  0.36114664  0.49765211  0.46216826    -0.39200
O3439       O  0.23560152  0.32234332  0.46124768    -0.39200
O3440       O  0.20816426  0.34711114  0.45682429    -0.36900
O3441       O  0.32643664  0.31591043  0.43257296    -0.37900
O3442       O  0.27367282  0.27903979  0.43436203    -0.34000
O3443       O  0.28856802  0.44036604  0.42776493    -0.35400
O3444       O  0.23597119  0.40440789  0.43026274    -0.39700
C3445       C  0.14940744  0.40614021  0.48894057    -0.13400
C3446       C  0.17988486  0.43473561  0.49101930     0.17000
C3447       C  0.17920540  0.46389775  0.49332519     0.03300
C3448       C  0.14925511  0.46505096  0.49225426    -0.11900
C3449       C  0.11901248  0.43746451  0.48854881    -0.03000
C3450       C  0.11929859  0.40676380  0.48802663     0.02500
C3451       C  0.21236648  0.43492548  0.48940685     0.09400
N3452       N  0.20911461  0.49269861  0.49674460     0.65700
H3453       H  0.15048997  0.48820731  0.49406031     0.18600
N3454       N  0.09019136  0.37618269  0.48535970     0.76200
H3455       H  0.14912497  0.38316146  0.48743553     0.10100
C3456       C  0.22295410  0.41704074  0.49575262     0.03800
C3457       C  0.25321387  0.41733968  0.49356065    -0.04900
C3458       C  0.27469886  0.43641745  0.48525550    -0.23300
C3459       C  0.26175430  0.45200186  0.47839089     0.13100
C3460       C  0.23173816  0.45140237  0.48066137    -0.12400
N3461       N  0.20326630  0.39863607  0.50453894     0.64800
H3462       H  0.25935798  0.40202771  0.49832790     0.12600
N3463       N  0.27743664  0.46695434  0.46863087     0.61400
H3464       H  0.22308900  0.46365989  0.47533214     0.08800
O3465       O  0.07133435  0.35837065  0.49267161    -0.40100
O3466       O  0.09040115  0.36230719  0.47692683    -0.39200
O3467       O  0.22131309  0.49238590  0.50556642    -0.39200
O3468       O  0.22669421  0.51518142  0.49022985    -0.36900
O3469       O  0.26209082  0.45434398  0.46018686    -0.37900
O3470       O  0.30282038  0.49565262  0.46843820    -0.34000
O3471       O  0.20297408  0.41380459  0.51264505    -0.35400
O3472       O  0.18218343  0.36815214  0.50357794    -0.39700
C3473       C  0.34038845  0.39976293  0.50497800    -0.13400
C3474       C  0.34840033  0.37903446  0.49927107     0.17000
C3475       C  0.33949757  0.37388320  0.48870981     0.03300
C3476       C  0.32440321  0.39021731  0.48390802    -0.11900
C3477       C  0.31719014  0.41291840  0.48926938    -0.03000
C3478       C  0.32519005  0.41654476  0.50022066     0.02500
C3479       C  0.36830289  0.36475927  0.50404135     0.09400
N3480       N  0.34802591  0.35382731  0.48248565     0.65700
H3481       H  0.32101885  0.38613093  0.47560036     0.18600
N3482       N  0.32096675  0.43923110  0.50659538     0.76200
H3483       H  0.34727487  0.40411829  0.51317296     0.10100
C3484       C  0.40312435  0.38415034  0.50525200     0.03800
C3485       C  0.42136206  0.37070725  0.50995087    -0.04900
C3486       C  0.40585867  0.33737985  0.51379703    -0.23300
C3487       C  0.37061243  0.31745185  0.51176510     0.13100
C3488       C  0.35275853  0.33125237  0.50695131    -0.12400
N3489       N  0.42015629  0.41838934  0.50227252     0.64800
H3490       H  0.44750358  0.38805329  0.51127655     0.12600
N3491       N  0.35143569  0.28372574  0.51522357     0.61400
H3492       H  0.32603022  0.31571675  0.50580164     0.08800
O3493       O  0.34595063  0.46769301  0.50811968    -0.40100
O3494       O  0.29793219  0.42759936  0.51333355    -0.39200
O3495       O  0.37727448  0.36607276  0.47890500    -0.39200
O3496       O  0.32841208  0.32285923  0.48211662    -0.36900
O3497       O  0.33308044  0.27751172  0.52316413    -0.37900
O3498       O  0.34326277  0.26098963  0.50857731    -0.34000
O3499       O  0.42697108  0.42631310  0.49276917    -0.35400
O3500       O  0.42280112  0.43990400  0.50875037    -0.39700
C3501       C  0.34695667  0.93416510  0.45716770    -0.13400
C3502       C  0.31858864  0.91794879  0.45078342     0.17000
C3503       C  0.29163059  0.88753937  0.45435370     0.03300
C3504       C  0.29228815  0.87586182  0.46443118    -0.11900
C3505       C  0.31861482  0.89456668  0.47156630    -0.03000
C3506       C  0.34752246  0.92303127  0.46733159     0.02500
C3507       C  0.31846759  0.93257302  0.44033114     0.09400
N3508       N  0.26278664  0.86833355  0.44798631     0.65700
H3509       H  0.27181016  0.85164774  0.46644995     0.18600
N3510       N  0.37770292  0.94151147  0.47324658     0.76200
H3511       H  0.36914694  0.95590402  0.45425025     0.10100
C3512       C  0.32801295  0.96642855  0.43919654     0.03800
C3513       C  0.32921754  0.97972637  0.42924967    -0.04900
C3514       C  0.32114346  0.96023018  0.42019460    -0.23300
C3515       C  0.31124498  0.92632063  0.42130724     0.13100
C3516       C  0.31031384  0.91301522  0.43127246    -0.12400
N3517       N  0.33673649  0.98790494  0.44804006     0.64800
H3518       H  0.33697896  0.00581348  0.42863287     0.12600
N3519       N  0.30341682  0.90524252  0.41241622     0.61400
H3520       H  0.30423028  0.88741723  0.43185432     0.08800
O3521       O  0.38515516  0.96971651  0.47669869    -0.40100
O3522       O  0.40084597  0.93504632  0.47201756    -0.39200
O3523       O  0.25811195  0.84150607  0.44409697    -0.39200
O3524       O  0.23858022  0.87347816  0.44851783    -0.36900
O3525       O  0.32594598  0.90113681  0.40843025    -0.37900
O3526       O  0.27318941  0.88494016  0.41030907    -0.34000
O3527       O  0.36708934  0.00909458  0.44963703    -0.35400
O3528       O  0.31446163  0.99176925  0.45233237    -0.39700
C3529       C  0.39413333  0.17046810  0.51417616    -0.13400
C3530       C  0.42441404  0.20038784  0.51283940     0.17000
C3531       C  0.45358175  0.19853377  0.51143415     0.03300
C3532       C  0.45289597  0.16810608  0.51280515    -0.11900
C3533       C  0.42381511  0.13909691  0.51630510    -0.03000
C3534       C  0.39340187  0.14002764  0.51571121     0.02500
C3535       C  0.42612736  0.23332640  0.51432969     0.09400
N3536       N  0.48434219  0.22772556  0.50878598     0.65700
H3537       H  0.47579369  0.16794215  0.51147955     0.18600
N3538       N  0.36155375  0.11068907  0.51713784     0.76200
H3539       H  0.37106200  0.17095915  0.51477770     0.10100
C3540       C  0.41272593  0.24659254  0.50714411     0.03800
C3541       C  0.41345736  0.27682225  0.50930247    -0.04900
C3542       C  0.42677967  0.29445031  0.51877926    -0.23300
C3543       C  0.44279927  0.28182323  0.52551884     0.13100
C3544       C  0.44159850  0.25171479  0.52331824    -0.12400
N3545       N  0.39930393  0.23008551  0.49744203     0.64800
H3546       H  0.40394063  0.28662107  0.50341046     0.12600
N3547       N  0.45994922  0.29867731  0.53487437     0.61400
H3548       H  0.45282740  0.24241822  0.52882297     0.08800
O3549       O  0.34871113  0.10258025  0.52612953    -0.40100
O3550       O  0.34414351  0.09570814  0.50922979    -0.39200
O3551       O  0.48813052  0.24022860  0.49976188    -0.39200
O3552       O  0.50543809  0.24372665  0.51585027    -0.36900
O3553       O  0.49125734  0.31751092  0.53450312    -0.37900
O3554       O  0.44670729  0.28652710  0.54361431    -0.34000
O3555       O  0.41893388  0.23180212  0.49032756    -0.35400
O3556       O  0.36866284  0.20856592  0.49682635    -0.39700
C3557       C  0.37998717  0.03972943  0.49949320    -0.13400
C3558       C  0.35525383  0.01238326  0.50515101     0.17000
C3559       C  0.34943790  0.01834425  0.51555749     0.03300
C3560       C  0.36993180  0.04953540  0.52022704    -0.11900
C3561       C  0.39764771  0.07611033  0.51501283    -0.03000
C3562       C  0.39985012  0.07133587  0.50408089     0.02500
C3563       C  0.33798399  0.97798573  0.50029052     0.09400
N3564       N  0.32234457  0.99331577  0.52155057     0.65700
H3565       H  0.36342317  0.05242159  0.52809163     0.18600
N3566       N  0.42353155  0.09770339  0.49757403     0.76200
H3567       H  0.38509213  0.03643891  0.49147787     0.10100
C3568       C  0.32632075  0.97215637  0.48985048     0.03800
C3569       C  0.31676567  0.94159905  0.48502643    -0.04900
C3570       C  0.31925613  0.91567997  0.49009141    -0.23300
C3571       C  0.32294134  0.91913008  0.50118633     0.13100
C3572       C  0.33465761  0.95045243  0.50592666    -0.12400
N3573       N  0.32315578  0.99660540  0.48398491     0.64800
H3574       H  0.30769805  0.93889657  0.47708371     0.12600
N3575       N  0.31466198  0.89141943  0.50787243     0.61400
H3576       H  0.34158148  0.95308607  0.51409430     0.08800
O3577       O  0.41402240  0.11479241  0.49252506    -0.40100
O3578       O  0.44902526  0.09709774  0.49444749    -0.39200
O3579       O  0.32868169  0.97991454  0.52913954    -0.39200
O3580       O  0.29444664  0.99195464  0.52125234    -0.36900
O3581       O  0.33674136  0.89251634  0.51396013    -0.37900
O3582       O  0.28431040  0.87258515  0.51021842    -0.34000
O3583       O  0.34262860  0.01079682  0.47638643    -0.35400
O3584       O  0.29579166  0.99632658  0.48431165    -0.39700
C3585       C  0.05111772  0.68000936  0.45640005    -0.13400
C3586       C  0.07605193  0.68588118  0.44920569     0.17000
C3587       C  0.10592077  0.68856192  0.45279147     0.03300
C3588       C  0.10939977  0.68306311  0.46336618    -0.11900
C3589       C  0.08319200  0.67360400  0.47071487    -0.03000
C3590       C  0.05418574  0.67471437  0.46705396     0.02500
C3591       C  0.06861036  0.68654873  0.43796927     0.09400
N3592       N  0.13311453  0.69696427  0.44582972     0.65700
H3593       H  0.13254693  0.68450808  0.46574740     0.18600
N3594       N  0.02766199  0.67162981  0.47363448     0.76200
H3595       H  0.02853548  0.67923031  0.45365947     0.10100
C3596       C  0.05665896  0.65756481  0.43195635     0.03800
C3597       C  0.04206046  0.65555350  0.42221920    -0.04900
C3598       C  0.03862096  0.68182705  0.41828864    -0.23300
C3599       C  0.05235178  0.71168306  0.42399755     0.13100
C3600       C  0.06711849  0.71374699  0.43382112    -0.12400
N3601       N  0.05601052  0.62869589  0.43606988     0.64800
H3602       H  0.03169175  0.63243877  0.41792983     0.12600
N3603       N  0.04870215  0.73878268  0.42046103     0.61400
H3604       H  0.07564470  0.73589946  0.43849716     0.08800
O3605       O  0.99842964  0.64792634  0.47194533    -0.40100
O3606       O  0.03041878  0.69744083  0.47770065    -0.39200
O3607       O  0.15709163  0.72653012  0.44556887    -0.39200
O3608       O  0.13739323  0.67420216  0.44227834    -0.36900
O3609       O  0.02450296  0.74145026  0.42373914    -0.37900
O3610       O  0.07315070  0.76343605  0.41616267    -0.34000
O3611       O  0.03029856  0.60721913  0.44085660    -0.35400
O3612       O  0.07661876  0.62083702  0.43267997    -0.39700
C3613       C  0.07804987  0.51984482  0.48901372    -0.13400
C3614       C  0.10481394  0.54474991  0.48344144     0.17000
C3615       C  0.12754571  0.53669694  0.47890546     0.03300
C3616       C  0.12219440  0.50405241  0.47970349    -0.11900
C3617       C  0.09447603  0.47783453  0.48506683    -0.03000
C3618       C  0.07205447  0.48714921  0.48976312     0.02500
C3619       C  0.10685173  0.57805287  0.48247672     0.09400
N3620       N  0.15667755  0.56135306  0.47360690     0.65700
H3621       H  0.13974186  0.49888618  0.47577357     0.18600
N3622       N  0.04077649  0.46415272  0.49435271     0.76200
H3623       H  0.06001827  0.52540393  0.49242358     0.10100
C3624       C  0.09958842  0.58907548  0.47305180     0.03800
C3625       C  0.09529811  0.61696341  0.47292117    -0.04900
C3626       C  0.09748919  0.63507425  0.48209401    -0.23300
C3627       C  0.10500273  0.62359963  0.49157105     0.13100
C3628       C  0.10971029  0.59594352  0.49160054    -0.12400
N3629       N  0.09295368  0.57034272  0.46365215     0.64800
H3630       H  0.08732166  0.62217884  0.46557619     0.12600
N3631       N  0.10702443  0.63900181  0.50140768     0.61400
H3632       H  0.11434299  0.58746713  0.49899374     0.08800
O3633       O  0.01529491  0.45141914  0.48854210    -0.40100
O3634       O  0.03682344  0.46729652  0.50395383    -0.39200
O3635       O  0.18375151  0.57664277  0.47864445    -0.39200
O3636       O  0.15769395  0.56061916  0.46375606    -0.36900
O3637       O  0.08231596  0.62531755  0.50751924    -0.37900
O3638       O  0.13548168  0.65861890  0.50519734    -0.34000
O3639       O  0.06310931  0.54891621  0.46149868    -0.35400
O3640       O  0.11415727  0.58185144  0.45636193    -0.39700
C3641       C  0.15356798  0.75909603  0.48882058    -0.13400
C3642       C  0.18468888  0.76101624  0.48793056     0.17000
C3643       C  0.18400835  0.73056619  0.48646928     0.03300
C3644       C  0.15358145  0.70044617  0.48580348    -0.11900
C3645       C  0.12190304  0.69828872  0.48581051    -0.03000
C3646       C  0.12304248  0.72940599  0.48705614     0.02500
C3647       C  0.21724083  0.79435281  0.48826942     0.09400
N3648       N  0.21387443  0.72941048  0.48475108     0.65700
H3649       H  0.15587555  0.67901477  0.48419249     0.18600
N3650       N  0.09472385  0.73312722  0.48520314     0.76200
H3651       H  0.15246510  0.78121809  0.49040381     0.10100
C3652       C  0.22100577  0.82447437  0.48416560     0.03800
C3653       C  0.25253373  0.85371524  0.48417296    -0.04900
C3654       C  0.28226450  0.85363455  0.48664333    -0.23300
C3655       C  0.27786200  0.82445007  0.49190958     0.13100
C3656       C  0.24574495  0.79633230  0.49290479    -0.12400
N3657       N  0.19402825  0.82593814  0.47923196     0.64800
H3658       H  0.25422044  0.87605129  0.48095489     0.12600
N3659       N  0.30452546  0.82263723  0.49699858     0.61400
H3660       H  0.24337526  0.77561275  0.49741990     0.08800
O3661       O  0.09370669  0.74596837  0.47658465    -0.40100
O3662       O  0.08033158  0.73704527  0.49297011    -0.39200
O3663       O  0.22334065  0.71647269  0.49166034    -0.39200
O3664       O  0.22463887  0.73220317  0.47553136    -0.36900
O3665       O  0.30835554  0.82793506  0.50670630    -0.37900
O3666       O  0.31416749  0.80407593  0.49312067    -0.34000
O3667       O  0.18186259  0.84156907  0.48367700    -0.35400
O3668       O  0.18932686  0.82038824  0.46954234    -0.39700
C3669       C  0.83224499  0.45880251  0.52961688    -0.13400
C3670       C  0.85254006  0.45121644  0.52339266     0.17000
C3671       C  0.87249769  0.47453409  0.51570733     0.03300
C3672       C  0.87606031  0.50618845  0.51554770    -0.11900
C3673       C  0.86089873  0.51641321  0.52314716    -0.03000
C3674       C  0.83474799  0.49030317  0.52904230     0.02500
C3675       C  0.85281749  0.41929873  0.52481716     0.09400
N3676       N  0.89056521  0.46712915  0.50819955     0.65700
H3677       H  0.89214408  0.52306370  0.50955594     0.18600
N3678       N  0.80984066  0.49488439  0.53407006     0.76200
H3679       H  0.81404715  0.44005425  0.53482327     0.10100
C3680       C  0.86310611  0.41157058  0.53428220     0.03800
C3681       C  0.86708360  0.38369263  0.53501144    -0.04900
C3682       C  0.86255089  0.36296745  0.52632061    -0.23300
C3683       C  0.84790685  0.36870516  0.51719600     0.13100
C3684       C  0.84423978  0.39692400  0.51649478    -0.12400
N3685       N  0.87120861  0.43262131  0.54319912     0.64800
H3686       H  0.87448703  0.37915077  0.54256586     0.12600
N3687       N  0.83700878  0.34656714  0.50844793     0.61400
H3688       H  0.83457990  0.40140215  0.50931911     0.08800
O3689       O  0.78311323  0.48726890  0.52923264    -0.40100
O3690       O  0.81210138  0.50172270  0.54367950    -0.39200
O3691       O  0.87930621  0.45970960  0.49899604    -0.39200
O3692       O  0.92084053  0.47626204  0.50991486    -0.36900
O3693       O  0.80670205  0.32399083  0.50799885    -0.37900
O3694       O  0.85350330  0.35589253  0.50004522    -0.34000
O3695       O  0.85038347  0.42395362  0.55057287    -0.35400
O3696       O  0.90139296  0.45404323  0.54491662    -0.39700
C3697       C  0.96492969  0.59377274  0.51527709    -0.13400
C3698       C  0.96675861  0.61401673  0.50704097     0.17000
C3699       C  0.93847491  0.61634326  0.50443734     0.03300
C3700       C  0.90833494  0.59772222  0.51006314    -0.11900
C3701       C  0.90556646  0.57586960  0.51824718    -0.03000
C3702       C  0.93552235  0.57511393  0.52090376     0.02500
C3703       C  0.99752251  0.62910695  0.50060656     0.09400
N3704       N  0.94026645  0.63768235  0.49610014     0.65700
H3705       H  0.88743516  0.60094939  0.50809088     0.18600
N3706       N  0.93733493  0.55588216  0.52939326     0.76200
H3707       H  0.98668396  0.59184022  0.51726939     0.10100
C3708       C  0.02754316  0.65666357  0.50403435     0.03800
C3709       C  0.05723566  0.66758961  0.49828980    -0.04900
C3710       C  0.05778532  0.65154745  0.48898337    -0.23300
C3711       C  0.02768711  0.62120635  0.48644333     0.13100
C3712       C  0.99821915  0.61127362  0.49202738    -0.12400
N3713       N  0.02840636  0.67271503  0.51362067     0.64800
H3714       H  0.08000749  0.68798345  0.50140400     0.12600
N3715       N  0.02635772  0.59911695  0.47847761     0.61400
H3716       H  0.97576569  0.58844295  0.48986061     0.08800
O3717       O  0.95281990  0.57111383  0.53754703    -0.40100
O3718       O  0.93586886  0.52874130  0.52736813    -0.39200
O3719       O  0.95542777  0.66864491  0.49753851    -0.39200
O3720       O  0.93377948  0.62657737  0.48688835    -0.36900
O3721       O  0.02670233  0.57330765  0.48128556    -0.37900
O3722       O  0.01411060  0.59923098  0.46965228    -0.34000
O3723       O  0.01575087  0.69112471  0.51399436    -0.35400
O3724       O  0.03546353  0.66329000  0.52203286    -0.39700
C3725       C  0.56228510  0.91505196  0.45600755    -0.13400
C3726       C  0.57369422  0.89456572  0.45235751     0.17000
C3727       C  0.57161358  0.86952763  0.45893467     0.03300
C3728       C  0.55931031  0.86623927  0.46915116    -0.11900
C3729       C  0.55128590  0.88931343  0.47355920    -0.03000
C3730       C  0.55076705  0.91268834  0.46625571     0.02500
C3731       C  0.58982785  0.90209300  0.44193812     0.09400
N3732       N  0.58191021  0.84711531  0.45537955     0.65700
H3733       H  0.55645631  0.84510064  0.47343926     0.18600
N3734       N  0.53839907  0.93436526  0.46868337     0.76200
H3735       H  0.56309109  0.93400872  0.45086015     0.10100
C3736       C  0.57161884  0.89975360  0.43280924     0.03800
C3737       C  0.58853848  0.91504900  0.42357498    -0.04900
C3738       C  0.62362339  0.93406339  0.42327306    -0.23300
C3739       C  0.64189115  0.93467859  0.43225121     0.13100
C3740       C  0.62483351  0.91842067  0.44144331    -0.12400
N3741       N  0.53598597  0.88414556  0.43296924     0.64800
H3742       H  0.57385230  0.91409338  0.41682070     0.12600
N3743       N  0.67759132  0.95304271  0.43239956     0.61400
H3744       H  0.63908332  0.92075094  0.44845977     0.08800
O3745       O  0.55851491  0.96522054  0.46800201    -0.40100
O3746       O  0.50795467  0.92407761  0.46678897    -0.39200
O3747       O  0.61002838  0.85153097  0.45816965    -0.39200
O3748       O  0.56039296  0.81943247  0.45166340    -0.36900
O3749       O  0.69246347  0.98171889  0.43633619    -0.37900
O3750       O  0.69341145  0.93783993  0.43114793    -0.34000
O3751       O  0.52271117  0.90192259  0.43380734    -0.35400
O3752       O  0.51871578  0.85500541  0.42950294    -0.39700
C3753       C  0.46755159  0.90601457  0.48830124    -0.13400
C3754       C  0.43982526  0.87571890  0.48555555     0.17000
C3755       C  0.44640214  0.85123218  0.48159478     0.03300
C3756       C  0.47955636  0.85758628  0.48099927    -0.11900
C3757       C  0.50694109  0.88568303  0.48569965    -0.03000
C3758       C  0.49984996  0.91100946  0.48913237     0.02500
C3759       C  0.40574364  0.87280987  0.48620913     0.09400
N3760       N  0.42011988  0.81918953  0.47851836     0.65700
H3761       H  0.48359558  0.83885420  0.47744977     0.18600
N3762       N  0.52401668  0.94320835  0.49290923     0.76200
H3763       H  0.46450806  0.92710875  0.48978713     0.10100
C3764       C  0.39882278  0.89075204  0.49377241     0.03800
C3765       C  0.37154746  0.89555375  0.49253120    -0.04900
C3766       C  0.34653492  0.87865240  0.48495436    -0.23300
C3767       C  0.35170931  0.85744518  0.47802768     0.13100
C3768       C  0.38149351  0.85626994  0.47844438    -0.12400
N3769       N  0.41889377  0.90415098  0.50297366     0.64800
H3770       H  0.37119895  0.91347229  0.49763818     0.12600
N3771       N  0.32833617  0.83851018  0.46995765     0.61400
H3772       H  0.38580723  0.84314224  0.47229239     0.08800
O3773       O  0.53704992  0.96692244  0.48647137    -0.40100
O3774       O  0.52021091  0.95014808  0.50213691    -0.39200
O3775       O  0.41658295  0.81160063  0.46894570    -0.39200
O3776       O  0.40781381  0.79627370  0.48527051    -0.36900
O3777       O  0.33612575  0.84764642  0.46057073    -0.37900
O3778       O  0.30686460  0.80854752  0.47174547    -0.34000
O3779       O  0.43438269  0.93516722  0.50436925    -0.35400
O3780       O  0.41288778  0.88534282  0.51078909    -0.39700
C3781       C  0.73477930  0.17748745  0.51536224    -0.13400
C3782       C  0.74342569  0.20266637  0.52292377     0.17000
C3783       C  0.71917711  0.19544038  0.53082288     0.03300
C3784       C  0.68784602  0.16672737  0.53036722    -0.11900
C3785       C  0.68020278  0.13954334  0.52378460    -0.03000
C3786       C  0.70501581  0.14582003  0.51604697     0.02500
C3787       C  0.77609725  0.23645041  0.52252752     0.09400
N3788       N  0.72676372  0.21449881  0.54022140     0.65700
H3789       H  0.67035830  0.16392759  0.53635900     0.18600
N3790       N  0.70168589  0.12096253  0.50890093     0.76200
H3791       H  0.75132068  0.18164407  0.50889259     0.10100
C3792       C  0.80700281  0.24256135  0.51816935     0.03800
C3793       C  0.83593137  0.27470942  0.51861069    -0.04900
C3794       C  0.83728376  0.30059457  0.52470418    -0.23300
C3795       C  0.80596254  0.29397404  0.52899672     0.13100
C3796       C  0.77637572  0.26419542  0.52686048    -0.12400
N3797       N  0.81051999  0.21655795  0.51366439     0.64800
H3798       H  0.85772286  0.27852592  0.51444923     0.12600
N3799       N  0.80309721  0.31659498  0.53583453     0.61400
H3800       H  0.75329865  0.26281176  0.52910092     0.08800
O3801       O  0.71539343  0.10419892  0.51113175    -0.40100
O3802       O  0.69500752  0.12317754  0.49944817    -0.39200
O3803       O  0.71025843  0.22850876  0.54237417    -0.39200
O3804       O  0.74154684  0.20872351  0.54753392    -0.36900
O3805       O  0.78918145  0.33216717  0.53247721    -0.37900
O3806       O  0.80429793  0.31291410  0.54558564    -0.34000
O3807       O  0.81374986  0.21606780  0.50387660    -0.35400
O3808       O  0.81967625  0.20053646  0.51943072    -0.39700
C3809       C  0.52009190  0.13540469  0.52573535    -0.13400
C3810       C  0.52274624  0.10978356  0.52108057     0.17000
C3811       C  0.49402733  0.08420538  0.51619375     0.03300
C3812       C  0.46402225  0.08480225  0.51607016    -0.11900
C3813       C  0.46076549  0.11110702  0.52039102    -0.03000
C3814       C  0.49009262  0.13622521  0.52565387     0.02500
C3815       C  0.55449885  0.10865347  0.52237286     0.09400
N3816       N  0.49444023  0.05685917  0.51134754     0.65700
H3817       H  0.44293945  0.06283468  0.51293645     0.18600
N3818       N  0.48971914  0.16111288  0.53200023     0.76200
H3819       H  0.54112868  0.15422364  0.53012407     0.10100
C3820       C  0.58610972  0.13574897  0.51978891     0.03800
C3821       C  0.61523873  0.13398780  0.52135249    -0.04900
C3822       C  0.61489236  0.10600369  0.52595382    -0.23300
C3823       C  0.58231575  0.07832168  0.52825713     0.13100
C3824       C  0.55332913  0.08044005  0.52667713    -0.12400
N3825       N  0.58930975  0.16539719  0.51535465     0.64800
H3826       H  0.63809179  0.15512222  0.51861885     0.12600
N3827       N  0.57715840  0.04684550  0.53166431     0.61400
H3828       H  0.52943553  0.05946207  0.52891357     0.08800
O3829       O  0.48601033  0.15586356  0.54173539    -0.40100
O3830       O  0.50585219  0.19084596  0.52887810    -0.39200
O3831       O  0.48017382  0.02895588  0.51587462    -0.39200
O3832       O  0.49985905  0.05810397  0.50164306    -0.36900
O3833       O  0.56839300  0.02437557  0.52488495    -0.37900
O3834       O  0.56819348  0.03802893  0.54099756    -0.34000
O3835       O  0.59978957  0.19081041  0.52102600    -0.35400
O3836       O  0.59019553  0.16866656  0.50553649    -0.39700
C3837       C  0.63007242  0.01497884  0.51932725    -0.13400
C3838       C  0.61815971  0.01249884  0.50916559     0.17000
C3839       C  0.62070599  0.04142129  0.50461012     0.03300
C3840       C  0.63251075  0.07069552  0.51051691    -0.11900
C3841       C  0.64236544  0.07303845  0.52112138    -0.03000
C3842       C  0.64037144  0.04331464  0.52549415     0.02500
C3843       C  0.60260385  0.97945224  0.50365368     0.09400
N3844       N  0.61013901  0.04140974  0.49409647     0.65700
H3845       H  0.63246381  0.09167581  0.50685621     0.18600
N3846       N  0.64496704  0.03863471  0.53631519     0.76200
H3847       H  0.62991311  0.99374007  0.52284067     0.10100
C3848       C  0.57925988  0.94902906  0.50853209     0.03800
C3849       C  0.56281775  0.91970661  0.50261326    -0.04900
C3850       C  0.56861243  0.91915994  0.49178486    -0.23300
C3851       C  0.59709138  0.94830557  0.48759683     0.13100
C3852       C  0.61244442  0.97788059  0.49343318    -0.12400
N3853       N  0.56977256  0.94745630  0.51926247     0.64800
H3854       H  0.54301519  0.89766606  0.50635556     0.12600
N3855       N  0.61385300  0.94832822  0.47819601     0.61400
H3856       H  0.63340360  0.99973892  0.49002990     0.08800
O3857       O  0.66865553  0.03385323  0.53873254    -0.40100
O3858       O  0.62001544  0.02705130  0.54232641    -0.39200
O3859       O  0.58125271  0.03688331  0.49247167    -0.39200
O3860       O  0.63194839  0.05464915  0.48701656    -0.36900
O3861       O  0.61769147  0.96870226  0.47104669    -0.37900
O3862       O  0.63542768  0.93952476  0.47887558    -0.34000
O3863       O  0.54537261  0.95113551  0.52155635    -0.35400
O3864       O  0.57943175  0.93378632  0.52584215    -0.39700
C3865       C  0.58174025  0.62655782  0.44686152    -0.13400
C3866       C  0.57797101  0.65427739  0.44816988     0.17000
C3867       C  0.59070688  0.67941609  0.44045257     0.03300
C3868       C  0.60605252  0.67599893  0.43151391    -0.11900
C3869       C  0.60918680  0.64789060  0.43007057    -0.03000
C3870       C  0.59695793  0.62300645  0.43793288     0.02500
C3871       C  0.56379001  0.65777819  0.45813206     0.09400
N3872       N  0.58774789  0.70830606  0.44146100     0.65700
H3873       H  0.61517744  0.69535686  0.42560758     0.18600
N3874       N  0.59985049  0.59402175  0.43707990     0.76200
H3875       H  0.57339670  0.60774664  0.45293059     0.10100
C3876       C  0.53239556  0.63306347  0.46179201     0.03800
C3877       C  0.52196393  0.63505958  0.47186242    -0.04900
C3878       C  0.54186641  0.66170509  0.47874482    -0.23300
C3879       C  0.57429586  0.68600752  0.47489129     0.13100
C3880       C  0.58418475  0.68400888  0.46472366    -0.12400
N3881       N  0.51097834  0.60494288  0.45550749     0.64800
H3882       H  0.49896475  0.61369199  0.47434184     0.12600
N3883       N  0.59854532  0.71249731  0.48118968     0.61400
H3884       H  0.60910639  0.70235551  0.46217164     0.08800
O3885       O  0.57480344  0.56710055  0.43418298    -0.40100
O3886       O  0.62377768  0.59337078  0.44160955    -0.39200
O3887       O  0.61322068  0.73552805  0.44390311    -0.39200
O3888       O  0.56302015  0.70847764  0.43735180    -0.36900
O3889       O  0.62145417  0.70906312  0.48529621    -0.37900
O3890       O  0.60455027  0.74158111  0.47927567    -0.34000
O3891       O  0.50827391  0.57723407  0.45762477    -0.35400
O3892       O  0.48870766  0.60575501  0.45001333    -0.39700
C3893       C  0.36822486  0.53409498  0.48904861    -0.13400
C3894       C  0.40001409  0.53812172  0.48776251     0.17000
C3895       C  0.40192937  0.50943546  0.48572606     0.03300
C3896       C  0.37269157  0.47855382  0.48414483    -0.11900
C3897       C  0.34002365  0.47400581  0.48474196    -0.03000
C3898       C  0.33874513  0.50276472  0.48826760     0.02500
C3899       C  0.43075279  0.57152563  0.48969119     0.09400
N3900       N  0.43351648  0.51102315  0.48524768     0.65700
H3901       H  0.37584308  0.45766437  0.48232843     0.18600
N3902       N  0.30910257  0.50109234  0.49227430     0.76200
H3903       H  0.36630932  0.55526634  0.49151381     0.10100
C3904       C  0.43759424  0.60061692  0.48416703     0.03800
C3905       C  0.46787521  0.63069860  0.48583845    -0.04900
C3906       C  0.49339017  0.63238884  0.49242198    -0.23300
C3907       C  0.48306681  0.60454271  0.49943557     0.13100
C3908       C  0.45281786  0.57472641  0.49769310    -0.12400
N3909       N  0.41566744  0.59944599  0.47608677     0.64800
H3910       H  0.47328112  0.65167934  0.48085685     0.12600
N3911       N  0.50060961  0.60592201  0.50886843     0.61400
H3912       H  0.44615783  0.55380630  0.50285759     0.08800
O3913       O  0.29912653  0.51936998  0.48825744    -0.40100
O3914       O  0.29991029  0.49037048  0.50145935    -0.39200
O3915       O  0.44340762  0.50156532  0.49304603    -0.39200
O3916       O  0.44714163  0.51398582  0.47647421    -0.36900
O3917       O  0.51144716  0.58607210  0.50986142    -0.37900
O3918       O  0.49235891  0.61467310  0.51711481    -0.34000
O3919       O  0.39827633  0.61290621  0.47756800    -0.35400
O3920       O  0.41980614  0.59254906  0.46688320    -0.39700
C3921       C  0.56672136  0.82106494  0.49436364    -0.13400
C3922       C  0.53566344  0.79236451  0.49591054     0.17000
C3923       C  0.50757020  0.79631121  0.49658992     0.03300
C3924       C  0.51051801  0.82771805  0.49472964    -0.11900
C3925       C  0.54085241  0.85581978  0.49116342    -0.03000
C3926       C  0.56981070  0.85234279  0.49232365     0.02500
C3927       C  0.53267869  0.75859630  0.49493974     0.09400
N3928       N  0.47533272  0.76802054  0.49843727     0.65700
H3929       H  0.48817474  0.82902658  0.49581134     0.18600
N3930       N  0.60278689  0.87951487  0.49066986     0.76200
H3931       H  0.58894449  0.81890453  0.49419607     0.10100
C3932       C  0.53688179  0.74815632  0.48509363     0.03800
C3933       C  0.53501546  0.71738173  0.48388340    -0.04900
C3934       C  0.53092222  0.69578058  0.49242458    -0.23300
C3935       C  0.52243892  0.70475332  0.50211696     0.13100
C3936       C  0.52435494  0.73608119  0.50335838    -0.12400
N3937       N  0.54192532  0.76831375  0.47603699     0.64800
H3938       H  0.53611138  0.71066726  0.47589959     0.12600
N3939       N  0.50795578  0.68100377  0.51036958     0.61400
H3940       H  0.51855814  0.74244671  0.51089021     0.08800
O3941       O  0.61958192  0.87775697  0.48320443    -0.40100
O3942       O  0.61823372  0.89770582  0.49837725    -0.39200
O3943       O  0.45944975  0.74899572  0.49093734    -0.39200
O3944       O  0.46612273  0.75840704  0.50770483    -0.36900
O3945       O  0.52600052  0.68118498  0.51780464    -0.37900
O3946       O  0.47659384  0.66545568  0.51145110    -0.34000
O3947       O  0.51796866  0.77082494  0.47235034    -0.35400
O3948       O  0.57112364  0.78696165  0.47261360    -0.39700
C3949       C  0.71804992  0.52758131  0.51543509    -0.13400
C3950       C  0.74691257  0.55838775  0.51687836     0.17000
C3951       C  0.74300275  0.58627263  0.51800302     0.03300
C3952       C  0.71092790  0.58209497  0.51965865    -0.11900
C3953       C  0.68139842  0.55019643  0.51979710    -0.03000
C3954       C  0.68573951  0.52352644  0.51609736     0.02500
C3955       C  0.78028076  0.56039212  0.51817625     0.09400
N3956       N  0.77116042  0.61896492  0.51681771     0.65700
H3957       H  0.70930150  0.60391589  0.52142065     0.18600
N3958       N  0.65896834  0.49339309  0.51190396     0.76200
H3959       H  0.72064611  0.50635253  0.51358244     0.10100
C3960       C  0.79610804  0.56826754  0.52798311     0.03800
C3961       C  0.82545927  0.56725344  0.52961423    -0.04900
C3962       C  0.84123610  0.55849442  0.52172623    -0.23300
C3963       C  0.82364971  0.54829757  0.51198348     0.13100
C3964       C  0.79415489  0.55001631  0.51029033    -0.12400
N3965       N  0.78027496  0.57290517  0.53688029     0.64800
H3966       H  0.83393967  0.57106887  0.53762035     0.12600
N3967       N  0.83175138  0.53095752  0.50441597     0.61400
H3968       H  0.78103639  0.54153135  0.50290467     0.08800
O3969       O  0.65546735  0.46606592  0.51499539    -0.40100
O3970       O  0.64728637  0.49437301  0.50306922    -0.39200
O3971       O  0.78806860  0.63496706  0.52466892    -0.39200
O3972       O  0.78078768  0.63076588  0.50775627    -0.36900
O3973       O  0.85476983  0.54670332  0.49785921    -0.37900
O3974       O  0.81224787  0.50020407  0.50318991    -0.34000
O3975       O  0.75761876  0.54761703  0.54151170    -0.35400
O3976       O  0.79479606  0.60021733  0.54167346    -0.39700
C3977       C  0.51853500  0.39182481  0.51590925    -0.13400
C3978       C  0.52853091  0.41139509  0.52490120     0.17000
C3979       C  0.50642907  0.40159667  0.53340661     0.03300
C3980       C  0.47491261  0.37262130  0.53277967    -0.11900
C3981       C  0.46246155  0.35482188  0.52327523    -0.03000
C3982       C  0.48618801  0.36412111  0.51495865     0.02500
C3983       C  0.55932064  0.44469128  0.52457827     0.09400
N3984       N  0.51406783  0.42286087  0.54226453     0.65700
H3985       H  0.46017714  0.36519823  0.53982043     0.18600
N3986       N  0.47785217  0.34643739  0.50529693     0.76200
H3987       H  0.53542483  0.39919457  0.50929919     0.10100
C3988       C  0.58995496  0.45131871  0.52888678     0.03800
C3989       C  0.61741587  0.48411362  0.52891659    -0.04900
C3990       C  0.61651343  0.51084932  0.52376881    -0.23300
C3991       C  0.58469638  0.50273301  0.51924283     0.13100
C3992       C  0.55723940  0.47040748  0.51984435    -0.12400
N3993       N  0.59407368  0.42464984  0.53260889     0.64800
H3994       H  0.64022149  0.48864346  0.53276389     0.12600
N3995       N  0.57789639  0.52614670  0.51430349     0.61400
H3996       H  0.53347631  0.46533781  0.51656397     0.08800
O3997       O  0.48777553  0.32608299  0.50378818    -0.40100
O3998       O  0.47089163  0.35844410  0.49746822    -0.39200
O3999       O  0.53246444  0.42251709  0.54950870    -0.39200
O4000       O  0.50568977  0.44475052  0.54222863    -0.36900
O4001       O  0.57215801  0.52304194  0.50460295    -0.37900
O4002       O  0.56469744  0.53911500  0.51967122    -0.34000
O4003       O  0.58662124  0.41466172  0.54192913    -0.35400
O4004       O  0.59865333  0.40707577  0.52610317    -0.39700
C4005       C  0.60067559  0.65986582  0.50866596    -0.13400
C4006       C  0.59729927  0.62928595  0.50546818     0.17000
C4007       C  0.57394748  0.61208657  0.49747340     0.03300
C4008       C  0.55444540  0.62431759  0.49334835    -0.11900
C4009       C  0.55597913  0.65411264  0.49660495    -0.03000
C4010       C  0.58094342  0.67283664  0.50438229     0.02500
C4011       C  0.61715389  0.61485205  0.51046151     0.09400
N4012       N  0.56716102  0.58037156  0.49382575     0.65700
H4013       H  0.53605015  0.60859334  0.48762837     0.18600
N4014       N  0.58790732  0.70484641  0.50802553     0.76200
H4015       H  0.61973155  0.67456286  0.51436317     0.10100
C4016       C  0.62176645  0.61436811  0.52137657     0.03800
C4017       C  0.63588828  0.59628372  0.52565588    -0.04900
C4018       C  0.64231492  0.57461169  0.51958106    -0.23300
C4019       C  0.64223017  0.57926205  0.50851570     0.13100
C4020       C  0.63054178  0.59956133  0.50422206    -0.12400
N4021       N  0.61035098  0.63021435  0.52842233     0.64800
H4022       H  0.64005525  0.59876503  0.53395229     0.12600
N4023       N  0.65316789  0.56324134  0.50136711     0.61400
H4024       H  0.63099192  0.60238777  0.49581451     0.08800
O4025       O  0.59546067  0.71233080  0.51752219    -0.40100
O4026       O  0.59464057  0.72799809  0.50161753    -0.39200
O4027       O  0.54144957  0.55490554  0.49723349    -0.39200
O4028       O  0.57855376  0.57880345  0.48502508    -0.36900
O4029       O  0.63165282  0.53943203  0.49596375    -0.37900
O4030       O  0.68281734  0.57922783  0.49803517    -0.34000
O4031       O  0.58093935  0.61405183  0.53194374    -0.35400
O4032       O  0.63151463  0.65630830  0.53305140    -0.39700
C4033       C  0.92911656  0.64461453  0.65728783    -0.13400
C4034       C  0.95179800  0.66816327  0.66436879     0.17000
C4035       C  0.98021749  0.69674475  0.66044397     0.03300
C4036       C  0.98685710  0.69981648  0.64970159    -0.11900
C4037       C  0.96594015  0.67469737  0.64271790    -0.03000
C4038       C  0.93593112  0.64752350  0.64653023     0.02500
C4039       C  0.95019074  0.65836293  0.67549183     0.09400
N4040       N  0.00469040  0.72097500  0.66730222     0.65700
H4041       H  0.00989220  0.72093726  0.64691540     0.18600
N4042       N  0.91415111  0.62071646  0.63986058     0.76200
H4043       H  0.90746451  0.62232976  0.66022897     0.10100
C4044       C  0.94556248  0.67536395  0.68380958     0.03800
C4045       C  0.94982453  0.66797007  0.69415226    -0.04900
C4046       C  0.95858128  0.64379385  0.69634470    -0.23300
C4047       C  0.96010749  0.62476332  0.68805507     0.13100
C4048       C  0.95613551  0.63233551  0.67775444    -0.12400
N4049       N  0.93637711  0.69993011  0.68194108     0.64800
H4050       H  0.94792666  0.68239850  0.70044828     0.12600
N4051       N  0.96580893  0.59778096  0.68992949     0.61400
H4052       H  0.95894241  0.61852838  0.67143213     0.08800
O4053       O  0.88692020  0.61819437  0.63692963    -0.40100
O4054       O  0.91807381  0.59593717  0.63908335    -0.39200
O4055       O  0.02878531  0.71758977  0.67031810    -0.39200
O4056       O  0.00740080  0.74923038  0.66782334    -0.36900
O4057       O  0.94102787  0.56876185  0.69070972    -0.37900
O4058       O  0.99435080  0.60163959  0.68817939    -0.34000
O4059       O  0.90576967  0.69115385  0.68194836    -0.35400
O4060       O  0.95775787  0.73008434  0.68340525    -0.39700
C4061       C  0.91040275  0.61352139  0.54853563    -0.13400
C4062       C  0.91060617  0.59246353  0.55624408     0.17000
C4063       C  0.89731533  0.55868806  0.55404049     0.03300
C4064       C  0.88468438  0.54657225  0.54407298    -0.11900
C4065       C  0.88431993  0.56736597  0.53602029    -0.03000
C4066       C  0.89784031  0.60181895  0.53854682     0.02500
C4067       C  0.92629217  0.60699752  0.56636527     0.09400
N4068       N  0.89679860  0.53625307  0.56179154     0.65700
H4069       H  0.87720932  0.52103307  0.54269676     0.18600
N4070       N  0.89963000  0.62574432  0.53109586     0.76200
H4071       H  0.92081471  0.63966907  0.55022994     0.10100
C4072       C  0.95921018  0.61478901  0.56855762     0.03800
C4073       C  0.97423200  0.63037730  0.57793058    -0.04900
C4074       C  0.95727139  0.63894396  0.58523546    -0.23300
C4075       C  0.92459090  0.63218233  0.58284502     0.13100
C4076       C  0.90939249  0.61618148  0.57345034    -0.12400
N4077       N  0.97824936  0.60822566  0.56118226     0.64800
H4078       H  0.99951985  0.63578865  0.57946706     0.12600
N4079       N  0.90644331  0.64122088  0.58978970     0.61400
H4080       H  0.88436928  0.61110654  0.57162889     0.08800
O4081       O  0.92766958  0.64555838  0.52709194    -0.40100
O4082       O  0.87818613  0.63480464  0.53158689    -0.39200
O4083       O  0.87039192  0.51903766  0.56698247    -0.39200
O4084       O  0.91809933  0.52702364  0.56132081    -0.36900
O4085       O  0.90681931  0.66816006  0.58827530    -0.37900
O4086       O  0.88404743  0.61924234  0.59553500    -0.34000
O4087       O  0.99747591  0.63101549  0.55498692    -0.35400
O4088       O  0.98277679  0.58406266  0.56276898    -0.39700
C4089       C  0.33300732  0.07607931  0.65832988    -0.13400
C4090       C  0.31484895  0.04916704  0.66517386     0.17000
C4091       C  0.29595932  0.01701046  0.66093437     0.03300
C4092       C  0.29607488  0.01217765  0.65019695    -0.11900
C4093       C  0.31506963  0.03862467  0.64331131    -0.03000
C4094       C  0.33317126  0.07111873  0.64745282     0.02500
C4095       C  0.31536513  0.05396504  0.67670904     0.09400
N4096       N  0.27773007  0.98849421  0.66748544     0.65700
H4097       H  0.28186467  0.98697558  0.64730359     0.18600
N4098       N  0.35191250  0.09924768  0.64082405     0.76200
H4099       H  0.34710012  0.10100988  0.66143157     0.10100
C4100       C  0.34502125  0.06635479  0.68263808     0.03800
C4101       C  0.34317360  0.06142860  0.69351153    -0.04900
C4102       C  0.31216319  0.04462309  0.69866608    -0.23300
C4103       C  0.28295046  0.03664453  0.69288040     0.13100
C4104       C  0.28487137  0.04141286  0.68201762    -0.12400
N4105       N  0.37704193  0.08192639  0.67771405     0.64800
H4106       H  0.36607385  0.06880634  0.69781050     0.12600
N4107       N  0.25081930  0.02170486  0.69772140     0.61400
H4108       H  0.26200632  0.03322695  0.67760679     0.08800
O4109       O  0.38330221  0.11249342  0.64046093    -0.40100
O4110       O  0.33847103  0.11535002  0.63755530    -0.39200
O4111       O  0.24627005  0.97453881  0.66782857    -0.39200
O4112       O  0.29177499  0.97287380  0.67066784    -0.36900
O4113       O  0.23884150  0.03978619  0.70015218    -0.37900
O4114       O  0.23150485  0.99074493  0.69700569    -0.34000
O4115       O  0.39449717  0.11319818  0.67763659    -0.35400
O4116       O  0.39083614  0.06508541  0.67585479    -0.39700
C4117       C  0.17911666  0.88825215  0.60056175    -0.13400
C4118       C  0.17279188  0.86231204  0.60753103     0.17000
C4119       C  0.19731348  0.86726391  0.61502618     0.03300
C4120       C  0.22743896  0.89733199  0.61537157    -0.11900
C4121       C  0.23402974  0.92327188  0.60842983    -0.03000
C4122       C  0.20953495  0.91864730  0.60093703     0.02500
C4123       C  0.14194882  0.82930529  0.60652287     0.09400
N4124       N  0.19183118  0.84211225  0.62249721     0.65700
H4125       H  0.24573654  0.90050464  0.62125955     0.18600
N4126       N  0.21598380  0.94343494  0.59322012     0.76200
H4127       H  0.16088047  0.88450394  0.59458873     0.10100
C4128       C  0.10972038  0.82466265  0.60802066     0.03800
C4129       C  0.08188145  0.79242568  0.60835786    -0.04900
C4130       C  0.08542056  0.76442765  0.60709738    -0.23300
C4131       C  0.11743666  0.76941837  0.60467459     0.13100
C4132       C  0.14518616  0.80158228  0.60446732    -0.12400
N4133       N  0.10492913  0.85223543  0.60965803     0.64800
H4134       H  0.05753890  0.78933110  0.61000754     0.12600
N4135       N  0.12240131  0.74231164  0.60231454     0.61400
H4136       H  0.16964709  0.80491478  0.60284163     0.08800
O4137       O  0.20232408  0.96084728  0.59406125    -0.40100
O4138       O  0.22828156  0.94235718  0.58453881    -0.39200
O4139       O  0.20624495  0.82551911  0.62128183    -0.39200
O4140       O  0.18018823  0.84252340  0.63136615    -0.36900
O4141       O  0.12278046  0.73482935  0.59286168    -0.37900
O4142       O  0.13507279  0.73237928  0.60917046    -0.34000
O4143       O  0.09471356  0.86256627  0.60217179    -0.35400
O4144       O  0.10310223  0.86070271  0.61887845    -0.39700
C4145       C  0.40369589  0.11798287  0.55042521    -0.13400
C4146       C  0.40116046  0.08945991  0.55485922     0.17000
C4147       C  0.40855691  0.06920183  0.54870882     0.03300
C4148       C  0.41757693  0.07744081  0.53822711    -0.11900
C4149       C  0.41768225  0.10474725  0.53320360    -0.03000
C4150       C  0.41224910  0.12642175  0.53987971     0.02500
C4151       C  0.38852521  0.08044093  0.56570843     0.09400
N4152       N  0.40436395  0.03864710  0.55268740     0.65700
H4153       H  0.42245624  0.06074086  0.53372268     0.18600
N4154       N  0.41659493  0.15782727  0.53668328     0.76200
H4155       H  0.39896095  0.13416011  0.55528228     0.10100
C4156       C  0.40932460  0.08269699  0.57410996     0.03800
C4157       C  0.39591876  0.07335024  0.58417451    -0.04900
C4158       C  0.36192900  0.06184579  0.58613267    -0.23300
C4159       C  0.34160502  0.06148178  0.57779037     0.13100
C4160       C  0.35502982  0.07063930  0.56769735    -0.12400
N4161       N  0.44421836  0.09506257  0.57264227     0.64800
H4162       H  0.41220045  0.07431261  0.59044703     0.12600
N4163       N  0.30740037  0.05196766  0.57937224     0.61400
H4164       H  0.33908364  0.06978379  0.56132710     0.08800
O4165       O  0.44539021  0.18312263  0.53724770    -0.40100
O4166       O  0.39182712  0.16209339  0.53734045    -0.39200
O4167       O  0.37641793  0.01248431  0.55158071    -0.39200
O4168       O  0.42988825  0.03628065  0.55448290    -0.36900
O4169       O  0.29998597  0.07420378  0.58086379    -0.37900
O4170       O  0.28473214  0.02327897  0.57673675    -0.34000
O4171       O  0.46449973  0.12545744  0.57421770    -0.35400
O4172       O  0.45490681  0.07497536  0.57285342    -0.39700
C4173       C  0.69465084  0.99867343  0.68258384    -0.13400
C4174       C  0.68421988  0.01826734  0.67724722     0.17000
C4175       C  0.67339194  0.03663096  0.68314061     0.03300
C4176       C  0.67007698  0.03262336  0.69399156    -0.11900
C4177       C  0.67705561  0.01032002  0.69922672    -0.03000
C4178       C  0.69144233  0.99474912  0.69349868     0.02500
C4179       C  0.67815409  0.01395407  0.66576402     0.09400
N4180       N  0.66353255  0.05788274  0.67817094     0.65700
H4181       H  0.65973272  0.04544659  0.69822153     0.18600
N4182       N  0.70136405  0.97358865  0.69849849     0.76200
H4183       H  0.70298620  0.98435444  0.67821586     0.10100
C4184       C  0.70320529  0.01956960  0.65841889     0.03800
C4185       C  0.69502967  0.01336260  0.64774043    -0.04900
C4186       C  0.66197891  0.00062569  0.64423743    -0.23300
C4187       C  0.63694887  0.99450736  0.65165818     0.13100
C4188       C  0.64522774  0.00110659  0.66223391    -0.12400
N4189       N  0.73687817  0.03117287  0.66164240     0.64800
H4190       H  0.71451896  0.01783637  0.64219632     0.12600
N4191       N  0.60294884  0.98203849  0.64863105     0.61400
H4192       H  0.62541764  0.99535284  0.66779434     0.08800
O4193       O  0.73166964  0.98522962  0.70094029    -0.40100
O4194       O  0.68241140  0.94254734  0.69800484    -0.39200
O4195       O  0.63282189  0.04842696  0.67744373    -0.39200
O4196       O  0.68466938  0.08839884  0.67730250    -0.36900
O4197       O  0.58237121  0.95135758  0.64947644    -0.37900
O4198       O  0.59210547  0.00193289  0.64784422    -0.34000
O4199       O  0.74730591  0.01089329  0.66217982    -0.35400
O4200       O  0.75778793  0.06186762  0.66131633    -0.39700
C4201       C  0.48503458  0.94337850  0.61128389    -0.13400
C4202       C  0.48462820  0.97168914  0.61475066     0.17000
C4203       C  0.51505431  0.00000841  0.61769810     0.03300
C4204       C  0.54486153  0.99970594  0.61699572    -0.11900
C4205       C  0.54546495  0.97178729  0.61333300    -0.03000
C4206       C  0.51514003  0.94326909  0.61046605     0.02500
C4207       C  0.45259783  0.97159395  0.61534912     0.09400
N4208       N  0.51643767  0.02974798  0.62117751     0.65700
H4209       H  0.56781516  0.02177539  0.61931631     0.18600
N4210       N  0.51445804  0.91443529  0.60643065     0.76200
H4211       H  0.46188593  0.92117996  0.60922517     0.10100
C4212       C  0.43079408  0.96309957  0.60669081     0.03800
C4213       C  0.40314317  0.96750989  0.60722335    -0.04900
C4214       C  0.39697216  0.98090014  0.61617416    -0.23300
C4215       C  0.41751952  0.98726830  0.62506545     0.13100
C4216       C  0.44452938  0.98185159  0.62463113    -0.12400
N4217       N  0.43731110  0.95185607  0.59708707     0.64800
H4218       H  0.38747185  0.96206904  0.60034786     0.12600
N4219       N  0.41198296  0.99993627  0.63452517     0.61400
H4220       H  0.45995666  0.98672450  0.63153036     0.08800
O4221       O  0.51375734  0.91041534  0.59665736    -0.40100
O4222       O  0.50701051  0.89012385  0.61243376    -0.39200
O4223       O  0.52108822  0.03701377  0.63077139    -0.39200
O4224       O  0.52210919  0.05222417  0.61459052    -0.36900
O4225       O  0.39614343  0.98003608  0.64187599    -0.37900
O4226       O  0.43009972  0.03044474  0.63651762    -0.34000
O4227       O  0.42003081  0.92153579  0.59473402    -0.35400
O4228       O  0.45378117  0.97274279  0.59002810    -0.39700
C4229       C  0.67328646  0.04550375  0.56749220    -0.13400
C4230       C  0.68264765  0.07891366  0.56854297     0.17000
C4231       C  0.68969400  0.09328416  0.57856108     0.03300
C4232       C  0.68545562  0.07350421  0.58738745    -0.11900
C4233       C  0.67363769  0.03932380  0.58638469    -0.03000
C4234       C  0.66850435  0.02559677  0.57623673     0.02500
C4235       C  0.67953692  0.09570218  0.55914185     0.09400
N4236       N  0.70044001  0.12759410  0.57991956     0.65700
H4237       H  0.68982507  0.08463523  0.59507539     0.18600
N4238       N  0.65666839  0.99113871  0.57460602     0.76200
H4239       H  0.66756845  0.03415977  0.55982136     0.10100
C4240       C  0.69971114  0.10093192  0.55039494     0.03800
C4241       C  0.68878319  0.10429621  0.54055039    -0.04900
C4242       C  0.65774478  0.10296832  0.53899887    -0.23300
C4243       C  0.64089062  0.10418416  0.54822096     0.13100
C4244       C  0.65118663  0.09891239  0.55806175    -0.12400
N4245       N  0.73073268  0.10143182  0.55129936     0.64800
H4246       H  0.70400227  0.10612391  0.53388086     0.12600
N4247       N  0.61594643  0.11377858  0.54813043     0.61400
H4248       H  0.63650535  0.09668155  0.56492238     0.08800
O4249       O  0.67702066  0.98231409  0.57170145    -0.40100
O4250       O  0.62574574  0.97153519  0.57333091    -0.39200
O4251       O  0.67990170  0.13573083  0.58317898    -0.39200
O4252       O  0.73133714  0.14840250  0.58034660    -0.36900
O4253       O  0.62546942  0.14431831  0.54834504    -0.37900
O4254       O  0.58723898  0.09374870  0.55164732    -0.34000
O4255       O  0.73231788  0.07630073  0.54858639    -0.35400
O4256       O  0.75741514  0.12903051  0.55212167    -0.39700
C4257       C  0.97472497  0.27971974  0.66378849    -0.13400
C4258       C  0.94594366  0.27838005  0.66784185     0.17000
C4259       C  0.92463499  0.28281048  0.66087675     0.03300
C4260       C  0.93355150  0.29055317  0.65030533    -0.11900
C4261       C  0.96380133  0.29471733  0.64652276    -0.03000
C4262       C  0.98379891  0.28783952  0.65327190     0.02500
C4263       C  0.94280138  0.27921703  0.67944983     0.09400
N4264       N  0.89472893  0.28125071  0.66449803     0.65700
H4265       H  0.91787758  0.29566967  0.64522339     0.18600
N4266       N  0.01392123  0.28984453  0.64965480     0.76200
H4267       H  0.99170800  0.27692453  0.66897305     0.10100
C4268       C  0.94416809  0.25577079  0.68621147     0.03800
C4269       C  0.94868585  0.26181389  0.69702817    -0.04900
C4270       C  0.95275152  0.29128601  0.70126294    -0.23300
C4271       C  0.94955020  0.31377139  0.69462056     0.13100
C4272       C  0.94454120  0.30754704  0.68386325    -0.12400
N4273       N  0.94254188  0.22645359  0.68220847     0.64800
H4274       H  0.95121107  0.24437146  0.70203586     0.12600
N4275       N  0.95199254  0.34344457  0.69863553     0.61400
H4276       H  0.94433042  0.32623114  0.67884979     0.08800
O4277       O  0.01354179  0.26350154  0.64718962    -0.40100
O4278       O  0.04157930  0.31576341  0.65141118    -0.39200
O4279       O  0.89425067  0.30785479  0.66565824    -0.39200
O4280       O  0.86739667  0.25423456  0.66375257    -0.36900
O4281       O  0.97941390  0.37041831  0.69796720    -0.37900
O4282       O  0.92555114  0.34413967  0.70036856    -0.34000
O4283       O  0.96898935  0.22501093  0.68171154    -0.35400
O4284       O  0.91467506  0.19985452  0.68197851    -0.39700
C4285       C  0.04638530  0.50100655  0.61873185    -0.13400
C4286       C  0.02643693  0.50516330  0.62610957     0.17000
C4287       C  0.00553021  0.47817907  0.63270584     0.03300
C4288       C  0.00327665  0.44745560  0.63132369    -0.11900
C4289       C  0.02167294  0.44272984  0.62352808    -0.03000
C4290       C  0.04457780  0.47033264  0.61748471     0.02500
C4291       C  0.02320191  0.53524434  0.62546846     0.09400
N4292       N  0.98555565  0.48112800  0.64065571     0.65700
H4293       H  0.98617149  0.42688895  0.63624374     0.18600
N4294       N  0.06525110  0.46755634  0.60976759     0.76200
H4295       H  0.06199021  0.52103586  0.61342820     0.10100
C4296       C  0.05107207  0.56782626  0.62522788     0.03800
C4297       C  0.04633692  0.59480307  0.62333902    -0.04900
C4298       C  0.01425850  0.59010534  0.62161163    -0.23300
C4299       C  0.98644281  0.55755047  0.62201071     0.13100
C4300       C  0.99123155  0.53071522  0.62379653    -0.12400
N4301       N  0.08434288  0.57408146  0.62677077     0.64800
H4302       H  0.06804787  0.61954919  0.62306906     0.12600
N4303       N  0.95311033  0.55094380  0.62036384     0.61400
H4304       H  0.96969471  0.50592227  0.62343022     0.08800
O4305       O  0.09539778  0.47728130  0.61195093    -0.40100
O4306       O  0.05614989  0.46349368  0.60031025    -0.39200
O4307       O  0.95432414  0.46715315  0.63935033    -0.39200
O4308       O  0.99723672  0.48871566  0.64980549    -0.36900
O4309       O  0.94012213  0.54227405  0.61139815    -0.37900
O4310       O  0.93448510  0.54574177  0.62817055    -0.34000
O4311       O  0.10353279  0.58163495  0.61898034    -0.35400
O4312       O  0.09690696  0.58115796  0.63582577    -0.39700
C4313       C  0.90298569  0.32049280  0.57834567    -0.13400
C4314       C  0.92241989  0.32581478  0.56931806     0.17000
C4315       C  0.95508267  0.33105190  0.57064454     0.03300
C4316       C  0.96762250  0.33148850  0.58070131    -0.11900
C4317       C  0.94861951  0.32694403  0.58975409    -0.03000
C4318       C  0.91558175  0.32085823  0.58845523     0.02500
C4319       C  0.90901649  0.32750358  0.55870671     0.09400
N4320       N  0.97598404  0.33562682  0.56185982     0.65700
H4321       H  0.99292726  0.33606317  0.58139448     0.18600
N4322       N  0.89436076  0.31502604  0.59725256     0.76200
H4323       H  0.87804253  0.31681352  0.57758537     0.10100
C4324       C  0.87792105  0.30216240  0.55495245     0.03800
C4325       C  0.86617346  0.30488491  0.54505691    -0.04900
C4326       C  0.88451694  0.33266543  0.53835889    -0.23300
C4327       C  0.91662101  0.35784153  0.54217645     0.13100
C4328       C  0.92765130  0.35516180  0.55223149    -0.12400
N4329       N  0.85845487  0.27234961  0.56082971     0.64800
H4330       H  0.84267306  0.28391668  0.54266476     0.12600
N4331       N  0.94016715  0.38463085  0.53568474     0.61400
H4332       H  0.95150073  0.37510117  0.55496161     0.08800
O4333       O  0.87351799  0.28553008  0.59983551    -0.40100
O4334       O  0.89057576  0.33831349  0.60060142    -0.39200
O4335       O  0.99980987  0.36437849  0.55978859    -0.39200
O4336       O  0.97658512  0.31084389  0.55822868    -0.36900
O4337       O  0.93577371  0.40845274  0.53335366    -0.37900
O4338       O  0.96840129  0.38762257  0.53402331    -0.34000
O4339       O  0.83193802  0.26749032  0.56517872    -0.35400
O4340       O  0.86250988  0.24793753  0.55924231    -0.39700
C4341       C  0.36025117  0.31714495  0.66007196    -0.13400
C4342       C  0.33226204  0.28994193  0.66463734     0.17000
C4343       C  0.30619392  0.26742028  0.65797134     0.03300
C4344       C  0.30790851  0.27336846  0.64713364    -0.11900
C4345       C  0.33489190  0.30179174  0.64271465    -0.03000
C4346       C  0.36182959  0.32320343  0.64926825     0.02500
C4347       C  0.32864802  0.28897848  0.67629782     0.09400
N4348       N  0.27716609  0.23901256  0.66208132     0.65700
H4349       H  0.28699188  0.25665595  0.64224828     0.18600
N4350       N  0.39074515  0.35171654  0.64514091     0.76200
H4351       H  0.38021727  0.33512326  0.66498715     0.10100
C4352       C  0.35366915  0.29119172  0.68322196     0.03800
C4353       C  0.35137392  0.29540944  0.69403550    -0.04900
C4354       C  0.32499158  0.29844468  0.69815197    -0.23300
C4355       C  0.29963878  0.29543996  0.69125738     0.13100
C4356       C  0.30164249  0.29067870  0.68052057    -0.12400
N4357       N  0.38204249  0.29008956  0.67940215     0.64800
H4358       H  0.37116434  0.29783567  0.69916806     0.12600
N4359       N  0.27163325  0.29736607  0.69499191     0.61400
H4360       H  0.28268114  0.29003354  0.67537713     0.08800
O4361       O  0.41681561  0.35026884  0.64347897    -0.40100
O4362       O  0.39286913  0.37972468  0.64564200    -0.39200
O4363       O  0.25006618  0.23923626  0.66254940    -0.39200
O4364       O  0.27630267  0.21155496  0.66235234    -0.36900
O4365       O  0.27167093  0.32433289  0.69408645    -0.37900
O4366       O  0.24435180  0.27087682  0.69662663    -0.34000
O4367       O  0.40985342  0.31667735  0.67876608    -0.35400
O4368       O  0.38135362  0.26271277  0.67933406    -0.39700
C4369       C  0.14368917  0.35679664  0.61896454    -0.13400
C4370       C  0.13933912  0.32601257  0.61601913     0.17000
C4371       C  0.10704482  0.29970542  0.61376588     0.03300
C4372       C  0.07973261  0.30474930  0.61421716    -0.11900
C4373       C  0.08393448  0.33576848  0.61695333    -0.03000
C4374       C  0.11641498  0.36188387  0.61954317     0.02500
C4375       C  0.16908728  0.32225299  0.61536393     0.09400
N4376       N  0.10160336  0.26782886  0.61089552     0.65700
H4377       H  0.05510724  0.28422753  0.61234179     0.18600
N4378       N  0.12227165  0.39351255  0.62294894     0.76200
H4379       H  0.16848909  0.37702001  0.62086046     0.10100
C4380       C  0.18979278  0.33342329  0.60648203     0.03800
C4381       C  0.22025949  0.33406325  0.60655893    -0.04900
C4382       C  0.23051881  0.32338390  0.61534649    -0.23300
C4383       C  0.20946813  0.31145120  0.62419478     0.13100
C4384       C  0.17893587  0.31103724  0.62413351    -0.12400
N4385       N  0.18044201  0.34470888  0.59737241     0.64800
H4386       H  0.23605420  0.34301247  0.59968066     0.12600
N4387       N  0.21985420  0.30230174  0.63355810     0.61400
H4388       H  0.16345102  0.30312201  0.63108526     0.08800
O4389       O  0.13337189  0.41731522  0.61651104    -0.40100
O4390       O  0.12441286  0.39957731  0.63262279    -0.39200
O4391       O  0.09097360  0.24501143  0.61767925    -0.39200
O4392       O  0.09963098  0.26046729  0.60133411    -0.36900
O4393       O  0.23555736  0.32403881  0.64044530    -0.37900
O4394       O  0.20677438  0.27201730  0.63596909    -0.34000
O4395       O  0.19404913  0.37546174  0.59561539    -0.35400
O4396       O  0.16517294  0.32453869  0.59006063    -0.39700
C4397       C  0.32572945  0.30186567  0.56403359    -0.13400
C4398       C  0.35567994  0.30172062  0.56265187     0.17000
C4399       C  0.37306224  0.30028251  0.57151884     0.03300
C4400       C  0.36040748  0.29901060  0.58154728    -0.11900
C4401       C  0.33127258  0.30068627  0.58303162    -0.03000
C4402       C  0.31356009  0.30170037  0.57410212     0.02500
C4403       C  0.37028678  0.30656246  0.55203199     0.09400
N4404       N  0.40541661  0.30381151  0.57054340     0.65700
H4405       H  0.37502013  0.29936954  0.58824451     0.18600
N4406       N  0.28365228  0.30326245  0.57506653     0.76200
H4407       H  0.31234994  0.30329822  0.55725689     0.10100
C4408       C  0.37137513  0.28101605  0.54666574     0.03800
C4409       C  0.38737770  0.28740880  0.53696363    -0.04900
C4410       C  0.40414509  0.31957499  0.53236483    -0.23300
C4411       C  0.39895923  0.34409459  0.53740298     0.13100
C4412       C  0.38311860  0.33747536  0.54717832    -0.12400
N4413       N  0.35519670  0.24794605  0.55073784     0.64800
H4414       H  0.38563958  0.26617481  0.53304772     0.12600
N4415       N  0.40868698  0.37571015  0.53278255     0.61400
H4416       H  0.38081134  0.35686139  0.55103786     0.08800
O4417       O  0.25573008  0.27688863  0.57427916    -0.40100
O4418       O  0.28508628  0.33084847  0.57395270    -0.39200
O4419       O  0.43085140  0.33254866  0.57062751    -0.39200
O4420       O  0.40893578  0.27911581  0.57230307    -0.36900
O4421       O  0.38638746  0.37909516  0.52821033    -0.37900
O4422       O  0.43330103  0.40127602  0.53660830    -0.34000
O4423       O  0.32641760  0.22720519  0.54741918    -0.35400
O4424       O  0.37258906  0.23748667  0.55512638    -0.39700
C4425       C  0.72844365  0.68650928  0.65943666    -0.13400
C4426       C  0.70221834  0.67293824  0.66673159     0.17000
C4427       C  0.66910984  0.65914105  0.66315785     0.03300
C4428       C  0.66252156  0.65814979  0.65248777    -0.11900
C4429       C  0.68836687  0.67129616  0.64505628    -0.03000
C4430       C  0.72181776  0.68584574  0.64862728     0.02500
C4431       C  0.70887130  0.67659674  0.67812930     0.09400
N4432       N  0.64186585  0.64771753  0.67033420     0.65700
H4433       H  0.63666366  0.64726636  0.65005216     0.18600
N4434       N  0.74927661  0.70114361  0.64151739     0.76200
H4435       H  0.75408782  0.69824495  0.66215561     0.10100
C4436       C  0.70251704  0.64928861  0.68451318     0.03800
C4437       C  0.69794730  0.65042283  0.69532844    -0.04900
C4438       C  0.69965502  0.67855981  0.69986861    -0.23300
C4439       C  0.71054300  0.70735093  0.69362134     0.13100
C4440       C  0.71472981  0.70600734  0.68283445    -0.12400
N4441       N  0.69913940  0.61975523  0.68005744     0.64800
H4442       H  0.69043178  0.62832354  0.70000373     0.12600
N4443       N  0.71539296  0.73760511  0.69794142     0.61400
H4444       H  0.72019184  0.72734467  0.67800928     0.08800
O4445       O  0.76426012  0.68591737  0.63899544    -0.40100
O4446       O  0.76326730  0.73200159  0.63988912    -0.39200
O4447       O  0.63122319  0.66690026  0.67279856    -0.39200
O4448       O  0.62372765  0.61700301  0.67204467    -0.36900
O4449       O  0.74407539  0.75883580  0.70120162    -0.37900
O4450       O  0.69478509  0.74679369  0.69566372    -0.34000
O4451       O  0.72365295  0.61502681  0.68039754    -0.35400
O4452       O  0.67040855  0.59571223  0.67803631    -0.39700
C4453       C  0.46808882  0.45875285  0.60891245    -0.13400
C4454       C  0.46817194  0.48316627  0.61529310     0.17000
C4455       C  0.43808537  0.47701713  0.61997998     0.03300
C4456       C  0.40885144  0.44660484  0.61840689    -0.11900
C4457       C  0.40882411  0.42183800  0.61221986    -0.03000
C4458       C  0.43881648  0.42826083  0.60732820     0.02500
C4459       C  0.49945853  0.51553985  0.61631744     0.09400
N4460       N  0.43690593  0.50093478  0.62661592     0.65700
H4461       H  0.38618525  0.44210565  0.62229916     0.18600
N4462       N  0.43985954  0.40475026  0.60044980     0.76200
H4463       H  0.49080145  0.46365848  0.60496134     0.10100
C4464       C  0.52898483  0.51763896  0.62017787     0.03800
C4465       C  0.55903647  0.54787781  0.61984704    -0.04900
C4466       C  0.56058901  0.57658839  0.61571767    -0.23300
C4467       C  0.53069503  0.57467694  0.61212873     0.13100
C4468       C  0.50056747  0.54425106  0.61244616    -0.12400
N4469       N  0.52889457  0.48930539  0.62452127     0.64800
H4470       H  0.58141827  0.54868088  0.62278067     0.12600
N4471       N  0.53037407  0.60289668  0.60787658     0.61400
H4472       H  0.47810207  0.54282082  0.60931013     0.08800
O4473       O  0.45264722  0.38793669  0.60361062    -0.40100
O4474       O  0.43577677  0.40672066  0.59075795    -0.39200
O4475       O  0.42393749  0.51730603  0.62319192    -0.39200
O4476       O  0.44017598  0.49913386  0.63636385    -0.36900
O4477       O  0.53095637  0.60649604  0.59807180    -0.37900
O4478       O  0.52045626  0.61832200  0.61352692    -0.34000
O4479       O  0.54043667  0.47464128  0.61920631    -0.35400
O4480       O  0.52552417  0.48447972  0.63427485    -0.39700
C4481       C  0.68788242  0.81156612  0.60730100    -0.13400
C4482       C  0.65863366  0.81179193  0.60992402     0.17000
C4483       C  0.62994636  0.78191429  0.61286868     0.03300
C4484       C  0.63091553  0.75254457  0.61317604    -0.11900
C4485       C  0.66019799  0.75208011  0.61068689    -0.03000
C4486       C  0.68896241  0.78207434  0.60766985     0.02500
C4487       C  0.65788795  0.84303603  0.60923486     0.09400
N4488       N  0.59993016  0.78116039  0.61594619     0.65700
H4489       H  0.60856289  0.73000091  0.61559234     0.18600
N4490       N  0.71925238  0.78313189  0.60480954     0.76200
H4491       H  0.70989277  0.83435098  0.60483833     0.10100
C4492       C  0.67967230  0.87102393  0.61522311     0.03800
C4493       C  0.67696945  0.89947578  0.61477202    -0.04900
C4494       C  0.65244368  0.90042731  0.60856445    -0.23300
C4495       C  0.63163995  0.87297464  0.60219098     0.13100
C4496       C  0.63466136  0.84465267  0.60254793    -0.12400
N4497       N  0.70315651  0.87023720  0.62232405     0.64800
H4498       H  0.69307055  0.92030510  0.61973633     0.12600
N4499       N  0.60765433  0.87352130  0.59524191     0.61400
H4500       H  0.61854922  0.82364886  0.59764932     0.08800
O4501       O  0.74310060  0.79415152  0.61127810    -0.40100
O4502       O  0.72504704  0.78138482  0.59526576    -0.39200
O4503       O  0.57519394  0.76913726  0.60980471    -0.39200
O4504       O  0.59566457  0.78518148  0.62545178    -0.36900
O4505       O  0.61589113  0.88294525  0.58590198    -0.37900
O4506       O  0.57708808  0.85781211  0.59766629    -0.34000
O4507       O  0.73387266  0.88616825  0.62009918    -0.35400
O4508       O  0.69437974  0.86102097  0.63164740    -0.39700
C4509       C  0.68447121  0.58935275  0.57669696    -0.13400
C4510       C  0.67584200  0.60001349  0.56752306     0.17000
C4511       C  0.67057587  0.62719142  0.56803870     0.03300
C4512       C  0.67218203  0.64200054  0.57764132    -0.11900
C4513       C  0.67865542  0.63021106  0.58697414    -0.03000
C4514       C  0.68593976  0.60419132  0.58640691     0.02500
C4515       C  0.66845134  0.58066620  0.55769295     0.09400
N4516       N  0.66249046  0.63947726  0.55888569     0.65700
H4517       H  0.66695286  0.66217101  0.57779585     0.18600
N4518       N  0.69324174  0.59142726  0.59559697     0.76200
H4519       H  0.68849259  0.56841634  0.57640491     0.10100
C4520       C  0.69309195  0.57900976  0.55185036     0.03800
C4521       C  0.68536995  0.56442664  0.54189244    -0.04900
C4522       C  0.65365202  0.55313897  0.53709660    -0.23300
C4523       C  0.62766230  0.54930905  0.54407963     0.13100
C4524       C  0.63563753  0.56392249  0.55401215    -0.12400
N4525       N  0.72658577  0.59357748  0.55564948     0.64800
H4526       H  0.70525777  0.56318175  0.53800608     0.12600
N4527       N  0.59306745  0.53194429  0.54128808     0.61400
H4528       H  0.61589695  0.56281439  0.55883902     0.08800
O4529       O  0.72326707  0.60057471  0.59776117    -0.40100
O4530       O  0.67011563  0.56597318  0.60002287    -0.39200
O4531       O  0.63254767  0.63187168  0.55729809    -0.39200
O4532       O  0.68557469  0.66383494  0.55403331    -0.36900
O4533       O  0.57610765  0.50152853  0.54361107    -0.37900
O4534       O  0.57806790  0.54815865  0.54056247    -0.34000
O4535       O  0.73619134  0.57532321  0.55988936    -0.35400
O4536       O  0.74801975  0.62248615  0.55272111    -0.39700
loop_ 
_geom_bond_atom_site_label_1 
_geom_bond_atom_site_label_2 
_geom_bond_distance 
_geom_bond_site_symmetry_2 
_ccdc_geom_bond_type 
In1           O3   2.220       .  S
In1           O4   2.285       .  S
In1          O12   2.270       .  S
In1           O6   2.210       .  S
In1           O8   2.267       .  S
In1           O9   2.206       .  S
In1          O10   2.229       .  S
In1          O13   2.299       .  S
C2            O8   1.261       .  A
C2           O10   1.262       .  A
C2         C4466   1.484       .  S
O3           C11   1.258       .  A
O4           C11   1.262       .  A
C5           O12   1.265       .  A
C5            O6   1.260       .  A
C5         C4485   1.482       .  S
C7            O9   1.257       .  A
C7           O13   1.265       .  A
C7         C4429   1.489       .  S
C11        C4513   1.488       .  S
In14         O16   2.278       .  S
In14         O17   2.239       .  S
In14         O25   2.265       .  S
In14         O19   2.230       .  S
In14         O21   2.227       .  S
In14         O22   2.261       .  S
In14         O23   2.247       .  S
In14         O26   2.259       .  S
C15          O21   1.263       .  A
C15          O23   1.261       .  A
C15        C4457   1.477       .  S
O16          C24   1.267       .  A
O17          C24   1.257       .  A
C18          O25   1.262       .  A
C18          O19   1.261       .  A
C18        C4382   1.475       .  S
C20          O22   1.257       .  A
C20          O26   1.264       .  A
C20        C4401   1.487       .  S
C24        C4345   1.486       .  S
In27         O29   2.261   1_455  S
In27         O30   2.301   1_455  S
In27         O38   2.242       .  S
In27         O32   2.240       .  S
In27         O34   2.234   1_455  S
In27         O35   2.246       .  S
In27         O36   2.261       .  S
In27         O39   2.285   1_455  S
C28          O34   1.259   1_455  A
C28          O36   1.258       .  A
C28        C4289   1.481       .  S
O29          C37   1.260       .  A
O30          C37   1.261       .  A
C31          O38   1.267       .  A
C31          O32   1.262       .  A
C31        C4373   1.485       .  S
C33          O35   1.256   1_655  A
C33          O39   1.264       .  A
C33        C4261   1.483       .  S
C37        C4317   1.503       .  S
In40         O42   2.241       .  S
In40         O43   2.269   1_565  S
In40         O51   2.228       .  S
In40         O45   2.231       .  S
In40         O47   2.247       .  S
In40         O48   2.233       .  S
In40         O49   2.208   1_565  S
In40         O52   2.262   1_565  S
C41          O47   1.262       .  A
C41          O49   1.262   1_565  A
C41        C4205   1.473       .  S
O42          C50   1.259       .  A
O43          C50   1.265   1_545  A
C44          O51   1.262       .  A
C44          O45   1.260       .  A
C44        C4494   1.471       .  S
C46          O48   1.257   1_545  A
C46          O52   1.263       .  A
C46        C4233   1.482       .  S
C50        C4186   1.485   1_565  S
In53         O55   2.269       .  S
In53         O56   2.233       .  S
In53         O64   2.277   1_545  S
In53         O58   2.218   1_545  S
In53         O60   2.255       .  S
In53         O61   2.309       .  S
In53         O62   2.236   1_545  S
In53         O65   2.210       .  S
C54          O60   1.261   1_565  A
C54          O62   1.261       .  A
C54        C4214   1.479       .  S
O55          C63   1.261       .  A
O56          C63   1.258       .  A
C57          O64   1.265       .  A
C57          O58   1.261       .  A
C57        C4121   1.480       .  S
C59          O61   1.263       .  A
C59          O65   1.255       .  A
C59        C4093   1.490       .  S
C63        C4158   1.485       .  S
In66         O68   2.233       .  S
In66         O69   2.267   1_455  S
In66         O77   2.256       .  S
In66         O71   2.248       .  S
In66         O73   2.249       .  S
In66         O74   2.203       .  S
In66         O75   2.238   1_455  S
In66         O78   2.273   1_455  S
C67          O73   1.261       .  A
C67          O75   1.258   1_455  A
C67        C4298   1.481       .  S
O68          C76   1.260   1_455  A
O69          C76   1.261       .  A
C70          O77   1.265       .  A
C70          O71   1.261       .  A
C70        C4130   1.488       .  S
C72          O74   1.258   1_655  A
C72          O78   1.264       .  A
C72        C4074   1.480       .  S
C76        C4037   1.482       .  S
C79        C3953   1.601       .  S
C79        C3990   1.585       .  S
C79        C4018   1.594       .  S
C79        C4522   1.593       .  S
C80        C3878   1.590       .  S
C80        C3906   1.596       .  S
C80        C3934   1.599       .  S
C80        C4009   1.588       .  S
C81        C3785   1.603       .  S
C81        C3822   1.589       .  S
C81        C3841   1.588       .  S
C81        C4242   1.565       .  S
C82        C3729   1.585       .  S
C82        C3757   1.591       .  S
C82        C3850   1.571       .  S
C82        C3925   1.619       .  S
C83        C3673   1.583       .  S
C83        C3701   1.574       .  S
C83        C3962   1.591       .  S
C83        C4065   1.569       .  S
C84        C3589   1.574       .  S
C84        C3626   1.596       .  S
C84        C3645   1.594       .  S
C84        C3710   1.565       .  S
C85        C3533   1.581       .  S
C85        C3561   1.598       .  S
C85        C3813   1.598       .  S
C85        C4149   1.578       .  S
C86        C3505   1.580       .  S
C86        C3570   1.602       .  S
C86        C3654   1.578       .  S
C86        C3766   1.575       .  S
C87        C3486   1.594       .  S
C87        C3542   1.592       .  S
C87        C3981   1.582       .  S
C87        C4410   1.581       .  S
C88        C3421   1.585       .  S
C88        C3458   1.596       .  S
C88        C3477   1.613       .  S
C88        C3897   1.596       .  S
C89        C3365   1.580       .  S
C89        C3402   1.586       .  S
C89        C3449   1.610       .  S
C89        C3617   1.604       .  S
C90        C3393   1.600       .  S
C90        C3682   1.593       .  S
C90        C3794   1.589       .  S
C90        C4326   1.582       .  S
In91         O93   2.233       .  S
In91         O94   2.287   1_655  S
In91        O102   2.252       .  S
In91         O96   2.240       .  S
In91         O98   2.267       .  S
In91         O99   2.297   1_655  S
In91        O100   2.218       .  S
In91        O103   2.207       .  S
C92          O98   1.264       .  A
C92         O100   1.263       .  A
C92        C3309   1.485       .  S
O93         C101   1.262       .  A
O94         C101   1.265   1_455  A
C95         O102   1.261       .  A
C95          O96   1.259       .  A
C95        C3337   1.475       .  S
C97          O99   1.265       .  A
C97         O103   1.255   1_455  A
C97        C3598   1.479       .  S
C101       C3281   1.494       .  S
In104       O106   2.264   1_655  S
In104       O107   2.252   1_655  S
In104       O115   2.260       .  S
In104       O109   2.218       .  S
In104       O111   2.233       .  S
In104       O112   2.258   1_655  S
In104       O113   2.253       .  S
In104       O116   2.231       .  S
C105        O111   1.261       .  A
C105        O113   1.261       .  A
C105       C3318   1.478       .  S
O106        C114   1.258       .  A
O107        C114   1.260       .  A
C108        O115   1.264       .  A
C108        O109   1.262       .  A
C108       C3253   1.481       .  S
C110        O112   1.264       .  A
C110        O116   1.257   1_455  A
C110       C3225   1.476       .  S
C114       C3374   1.484       .  S
In117       O119   2.243   1_545  S
In117       O120   2.248   1_545  S
In117       O128   2.231       .  S
In117       O122   2.267       .  S
In117       O124   2.264       .  S
In117       O125   2.228   1_545  S
In117       O126   2.219       .  S
In117       O129   2.279   1_545  S
C118        O124   1.259       .  A
C118        O126   1.259       .  A
C118       C3197   1.477       .  S
O119        C127   1.259       .  A
O120        C127   1.265       .  A
C121        O128   1.259       .  A
C121        O122   1.260       .  A
C121       C3262   1.479       .  S
C123        O125   1.257       .  A
C123        O129   1.260       .  A
C123       C3738   1.485       .  S
C127       C3169   1.479       .  S
In130       O132   2.230       .  S
In130       O133   2.251       .  S
In130       O141   2.276       .  S
In130       O135   2.201       .  S
In130       O137   2.274       .  S
In130       O138   2.287       .  S
In130       O139   2.205       .  S
In130       O142   2.227       .  S
C131        O137   1.263       .  A
C131        O139   1.259       .  A
C131       C3141   1.480       .  S
O132        C140   1.257       .  A
O133        C140   1.265       .  A
C134        O141   1.265       .  A
C134        O135   1.263       .  A
C134       C3346   1.484       .  S
C136        O138   1.264       .  A
C136        O142   1.259       .  A
C136       C3113   1.485       .  S
C140       C3869   1.482       .  S
In143       O145   2.249       .  S
In143       O146   2.250       .  S
In143       O154   2.257       .  S
In143       O148   2.260       .  S
In143       O150   2.228       .  S
In143       O151   2.219       .  S
In143       O152   2.289       .  S
In143       O155   2.278       .  S
C144        O150   1.257       .  A
C144        O152   1.261       .  A
C144       C3057   1.483       .  S
O145        C153   1.263       .  A
O146        C153   1.261       .  A
C147        O154   1.259       .  A
C147        O148   1.262       .  A
C147       C3430   1.492       .  S
C149        O151   1.259       .  A
C149        O155   1.263       .  A
C149       C3094   1.485       .  S
C153       C3150   1.482       .  S
In156       O158   2.238       .  S
In156       O159   2.278   1_545  S
In156       O167   2.260       .  S
In156       O161   2.249       .  S
In156       O163   2.217       .  S
In156       O164   2.263   1_545  S
In156       O165   2.225   1_545  S
In156       O168   2.212       .  S
C157        O163   1.263       .  A
C157        O165   1.261   1_545  A
C157       C3206   1.470       .  S
O158        C166   1.259   1_545  A
O159        C166   1.262       .  A
C160        O167   1.264       .  A
C160        O161   1.259       .  A
C160       C3085   1.485       .  S
C162        O164   1.266       .  A
C162        O168   1.255   1_565  A
C162       C3029   1.476       .  S
C166       C3514   1.490       .  S
In169       O171   2.246       .  S
In169       O172   2.264       .  S
In169       O180   2.260       .  S
In169       O174   2.220       .  S
In169       O176   2.266   1_655  S
In169       O177   2.248       .  S
In169       O178   2.209   1_655  S
In169       O181   2.267       .  S
C170        O176   1.263       .  A
C170        O178   1.261       .  A
C170       C2954   1.476       .  S
O171        C179   1.259       .  A
O172        C179   1.264       .  A
C173        O180   1.261       .  A
C173        O174   1.261       .  A
C173       C2982   1.482       .  S
C175        O177   1.261       .  A
C175        O181   1.259       .  A
C175       C3001   1.488       .  S
C179       C2917   1.485       .  S
In182       O184   2.257       .  S
In182       O185   2.263       .  S
In182       O193   2.290       .  S
In182       O187   2.213       .  S
In182       O189   2.218       .  S
In182       O190   2.267       .  S
In182       O191   2.255   1_655  S
In182       O194   2.233       .  S
C183        O189   1.261   1_455  A
C183        O191   1.261       .  A
C183       C2833   1.477       .  S
O184        C192   1.258       .  A
O185        C192   1.264       .  A
C186        O193   1.263       .  A
C186        O187   1.257       .  A
C186       C2870   1.485       .  S
C188        O190   1.265       .  A
C188        O194   1.258       .  A
C188       C2805   1.486       .  S
C192       C2889   1.492   1_655  S
In195       O197   2.224       .  S
In195       O198   2.238       .  S
In195       O206   2.221       .  S
In195       O200   2.247       .  S
In195       O202   2.277       .  S
In195       O203   2.283       .  S
In195       O204   2.211       .  S
In195       O207   2.211       .  S
C196        O202   1.259       .  A
C196        O204   1.256       .  A
C196       C2842   1.478       .  S
O197        C205   1.260       .  A
O198        C205   1.257       .  A
C199        O206   1.263       .  A
C199        O200   1.262       .  A
C199       C2749   1.480       .  S
C201        O203   1.264       .  A
C201        O207   1.260       .  A
C201       C2777   1.485       .  S
C205       C2721   1.474       .  S
In208       O210   2.254       .  S
In208       O211   2.243       .  S
In208       O219   2.272   1_565  S
In208       O213   2.230   1_565  S
In208       O215   2.222       .  S
In208       O216   2.265   1_565  S
In208       O217   2.235       .  S
In208       O220   2.222       .  S
C209        O215   1.259       .  A
C209        O217   1.259       .  A
C209       C2945   1.469       .  S
O210        C218   1.263       .  A
O211        C218   1.255       .  A
C212        O219   1.260       .  A
C212        O213   1.259       .  A
C212       C2758   1.483       .  S
C214        O216   1.265   1_565  A
C214        O220   1.257       .  A
C214       C2665   1.481       .  S
C218       C2693   1.484       .  S
In221       O223   2.292       .  S
In221       O224   2.231       .  S
In221       O232   2.236   1_565  S
In221       O226   2.238   1_565  S
In221       O228   2.258       .  S
In221       O229   2.230       .  S
In221       O230   2.223       .  S
In221       O233   2.285       .  S
C222        O228   1.261       .  A
C222        O230   1.260       .  A
C222       C2609   1.478       .  S
O223        C231   1.263       .  A
O224        C231   1.258       .  A
C225        O232   1.265       .  A
C225        O226   1.261       .  A
C225       C2861   1.480       .  S
C227        O229   1.256       .  A
C227        O233   1.259       .  A
C227       C2646   1.485       .  S
C231       C2581   1.487       .  S
In234       O236   2.256       .  S
In234       O237   2.266       .  S
In234       O245   2.245       .  S
In234       O239   2.257       .  S
In234       O241   2.225       .  S
In234       O242   2.249       .  S
In234       O243   2.247       .  S
In234       O246   2.250       .  S
C235        O241   1.259       .  A
C235        O243   1.260       .  A
C235       C2618   1.468       .  S
O236        C244   1.262       .  A
O237        C244   1.261       .  A
C238        O245   1.262       .  A
C238        O239   1.259       .  A
C238       C2973   1.482       .  S
C240        O242   1.259       .  A
C240        O246   1.256       .  A
C240       C2525   1.481       .  S
C244       C2553   1.491       .  S
C247       C2413   1.587       .  S
C247       C2441   1.594       .  S
C247       C2469   1.605       .  S
C247       C2497   1.602       .  S
C248       C2357   1.596       .  S
C248       C2385   1.601       .  S
C248       C2506   1.582       .  S
C248       C2562   1.583       .  S
C249       C2273   1.568   1_565  S
C249       C2301   1.608   1_565  S
C249       C2329   1.600       .  S
C249       C2478   1.600       .  S
C250       C2245   1.611       .  S
C250       C2338   1.600       .  S
C250       C2394   1.586       .  S
C250       C2637   1.572       .  S
C251       C2161   1.571       .  S
C251       C2189   1.594   1_655  S
C251       C2217   1.583       .  S
C251       C2450   1.600       .  S
C252       C2105   1.606       .  S
C252       C2133   1.580       .  S
C252       C2226   1.583       .  S
C252       C3010   1.583       .  S
C253       C2021   1.584       .  S
C253       C2049   1.593   1_655  S
C253       C2077   1.579       .  S
C253       C2310   1.607       .  S
C254       C1993   1.586       .  S
C254       C2086   1.594       .  S
C254       C2114   1.586       .  S
C254       C2898   1.579       .  S
C255       C1918   1.590       .  S
C255       C1946   1.581       .  S
C255       C1965   1.600       .  S
C255       C2058   1.587       .  S
C256       C1974   1.586       .  S
C256       C2002   1.580       .  S
C256       C2366   1.588       .  S
C256       C2786   1.576       .  S
C257       C1862   1.583       .  S
C257       C1890   1.583       .  S
C257       C1937   1.584   1_565  S
C257       C2198   1.574       .  S
C258       C1881   1.596       .  S
C258       C2142   1.615       .  S
C258       C2254   1.612       .  S
C258       C2702   1.565       .  S
In259       O261   2.235       .  S
In259       O262   2.277       .  S
In259       O270   2.228       .  S
In259       O264   2.238   1_655  S
In259       O266   2.258   1_655  S
In259       O267   2.274       .  S
In259       O268   2.218   1_655  S
In259       O271   2.240       .  S
C260        O266   1.259       .  A
C260        O268   1.258       .  A
C260       C1797   1.476       .  S
O261        C269   1.257       .  A
O262        C269   1.258       .  A
C263        O270   1.265       .  A
C263        O264   1.264   1_655  A
C263       C1834   1.476       .  S
C265        O267   1.265       .  A
C265        O271   1.259       .  A
C265       C4270   1.480       .  S
C269       C2030   1.486       .  S
In272       O274   2.246       .  S
In272       O275   2.289       .  S
In272       O283   2.255       .  S
In272       O277   2.244       .  S
In272       O279   2.210       .  S
In272       O280   2.275       .  S
In272       O281   2.234       .  S
In272       O284   2.237       .  S
C273        O279   1.264       .  A
C273        O281   1.262       .  A
C273       C1806   1.472       .  S
O274        C282   1.258       .  A
O275        C282   1.268       .  A
C276        O283   1.265       .  A
C276        O277   1.261       .  A
C276       C1769   1.486       .  S
C278        O280   1.267       .  A
C278        O284   1.257       .  A
C278       C1909   1.492       .  S
C282       C4354   1.491       .  S
In285       O287   2.250       .  S
In285       O288   2.265       .  S
In285       O296   2.282       .  S
In285       O290   2.243       .  S
In285       O292   2.246       .  S
In285       O293   2.240       .  S
In285       O294   2.227       .  S
In285       O297   2.289       .  S
C286        O292   1.265       .  A
C286        O294   1.260       .  A
C286       C1741   1.476       .  S
O287        C295   1.256       .  A
O288        C295   1.263       .  A
C289        O296   1.262       .  A
C289        O290   1.262       .  A
C289       C1778   1.494       .  S
C291        O293   1.254       .  A
C291        O297   1.264       .  A
C291       C4438   1.485       .  S
C295       C2422   1.488       .  S
In298       O300   2.257       .  S
In298       O301   2.245   1_565  S
In298       O309   2.257   1_565  S
In298       O303   2.263       .  S
In298       O305   2.241       .  S
In298       O306   2.279   1_565  S
In298       O307   2.228       .  S
In298       O310   2.240       .  S
C299        O305   1.260       .  A
C299        O307   1.262       .  A
C299       C1750   1.476       .  S
O300        C308   1.258   1_565  A
O301        C308   1.262       .  A
C302        O309   1.263   1_565  A
C302        O303   1.259       .  A
C302       C1722   1.490       .  S
C304        O306   1.259       .  A
C304        O310   1.259   1_545  A
C304       C2282   1.488       .  S
C308       C4177   1.485       .  S
In311       O313   2.207       .  S
In311       O314   2.302   1_565  S
In311       O322   2.284   1_565  S
In311       O316   2.215       .  S
In311       O318   2.241       .  S
In311       O319   2.255   1_565  S
In311       O320   2.269       .  S
In311       O323   2.264   1_565  S
C312        O318   1.261       .  A
C312        O320   1.261       .  A
C312       C1685   1.487       .  S
O313        C321   1.255   1_565  A
O314        C321   1.263       .  A
C315        O322   1.264   1_565  A
C315        O316   1.260       .  A
C315       C1713   1.487       .  S
C317        O319   1.260       .  A
C317        O323   1.259       .  A
C317       C4102   1.489       .  S
C321       C1853   1.485       .  S
In324       O326   2.237   1_455  S
In324       O327   2.255   1_455  S
In324       O335   2.241   1_455  S
In324       O329   2.247       .  S
In324       O331   2.252       .  S
In324       O332   2.264   1_455  S
In324       O333   2.249       .  S
In324       O336   2.222       .  S
C325        O331   1.261       .  A
C325        O333   1.257       .  A
C325       C1694   1.483       .  S
O326        C334   1.257       .  A
O327        C334   1.261       .  A
C328        O335   1.264       .  A
C328        O329   1.262   1_655  A
C328       C1825   1.485       .  S
C330        O332   1.264       .  A
C330        O336   1.261   1_655  A
C330       C2170   1.483       .  S
C334       C4046   1.476       .  S
In337       O339   2.248       .  S
In337       O340   2.249       .  S
In337       O348   2.231       .  S
In337       O342   2.239       .  S
In337       O344   2.250   1_565  S
In337       O345   2.266       .  S
In337       O346   2.235   1_565  S
In337       O349   2.211       .  S
C338        O344   1.262       .  A
C338        O346   1.258       .  A
C338       C1610   1.480       .  S
O339        C347   1.260       .  A
O340        C347   1.263       .  A
C341        O348   1.264       .  A
C341        O342   1.262       .  A
C341       C1629   1.475       .  S
C343        O345   1.263       .  A
C343        O349   1.259       .  A
C343       C1657   1.480   1_565  S
C347       C2590   1.478       .  S
In350       O352   2.202       .  S
In350       O353   2.262       .  S
In350       O361   2.264       .  S
In350       O355   2.213       .  S
In350       O357   2.269       .  S
In350       O358   2.285       .  S
In350       O359   2.213       .  S
In350       O362   2.202       .  S
C351        O357   1.262       .  A
C351        O359   1.260       .  A
C351       C1545   1.480       .  S
O352        C360   1.260       .  A
O353        C360   1.264       .  A
C354        O361   1.264       .  A
C354        O355   1.261       .  A
C354       C1638   1.474       .  S
C356        O358   1.266       .  A
C356        O362   1.258       .  A
C356       C2534   1.485       .  S
C360       C1573   1.478       .  S
In363       O365   2.226       .  S
In363       O366   2.268       .  S
In363       O374   2.238   1_655  S
In363       O368   2.253   1_655  S
In363       O370   2.227       .  S
In363       O371   2.273       .  S
In363       O372   2.224       .  S
In363       O375   2.205       .  S
C364        O370   1.266       .  A
C364        O372   1.261       .  A
C364       C1554   1.469       .  S
O365        C373   1.259       .  A
O366        C373   1.267       .  A
C367        O374   1.264       .  A
C367        O368   1.263       .  A
C367       C1489   1.485       .  S
C369        O371   1.267       .  A
C369        O375   1.260       .  A
C369       C1517   1.483       .  S
C373       C2926   1.483       .  S
In376       O378   2.214       .  S
In376       O379   2.259       .  S
In376       O387   2.280   1_545  S
In376       O381   2.232   1_545  S
In376       O383   2.259       .  S
In376       O384   2.294       .  S
In376       O385   2.231       .  S
In376       O388   2.205       .  S
C377        O383   1.261       .  A
C377        O385   1.262       .  A
C377       C1433   1.481       .  S
O378        C386   1.259       .  A
O379        C386   1.263       .  A
C380        O387   1.264       .  A
C380        O381   1.260       .  A
C380       C1498   1.489       .  S
C382        O384   1.263       .  A
C382        O388   1.255       .  A
C382       C2674   1.483       .  S
C386       C1461   1.476       .  S
In389       O391   2.202       .  S
In389       O392   2.250       .  S
In389       O400   2.270       .  S
In389       O394   2.226       .  S
In389       O396   2.241       .  S
In389       O397   2.193       .  S
In389       O398   2.257       .  S
In389       O401   2.276       .  S
C390        O396   1.261       .  A
C390        O398   1.260       .  A
C390       C1442   1.479       .  S
O391        C399   1.261       .  A
O392        C399   1.264       .  A
C393        O400   1.264       .  A
C393        O394   1.260       .  A
C393       C1377   1.485       .  S
C395        O397   1.257       .  A
C395        O401   1.264       .  A
C395       C1405   1.479       .  S
C399       C2730   1.475       .  S
In402       O404   2.288       .  S
In402       O405   2.232       .  S
In402       O413   2.229   1_655  S
In402       O407   2.246       .  S
In402       O409   2.271       .  S
In402       O410   2.279       .  S
In402       O411   2.231       .  S
In402       O414   2.245       .  S
C403        O409   1.259       .  A
C403        O411   1.260       .  A
C403       C1601   1.483       .  S
O404        C412   1.263       .  A
O405        C412   1.257       .  A
C406        O413   1.262       .  A
C406        O407   1.260   1_455  A
C406       C1386   1.476       .  S
C408        O410   1.260       .  A
C408        O414   1.259       .  A
C408       C2814   1.491       .  S
C412       C1358   1.491       .  S
C415       C1237   1.580       .  S
C415       C1265   1.575       .  S
C415       C1293   1.580       .  S
C415       C1321   1.584       .  S
C416       C1181   1.579       .  S
C416       C1209   1.588       .  S
C416       C1330   1.581       .  S
C416       C1582   1.584       .  S
C417       C1106   1.568       .  S
C417       C1134   1.588   1_565  S
C417       C1153   1.588       .  S
C417       C1302   1.595       .  S
C418       C1050   1.580       .  S
C418       C1078   1.588       .  S
C418       C1162   1.575       .  S
C418       C1666   1.570       .  S
C419        C994   1.600       .  S
C419       C1013   1.595       .  S
C419       C1218   1.592       .  S
C419       C1414   1.566       .  S
C420        C901   1.571       .  S
C420        C929   1.594       .  S
C420        C957   1.574       .  S
C420       C1022   1.584       .  S
C421        C882   1.598       .  S
C421        C985   1.589       .  S
C421       C1069   1.585       .  S
C421       C1470   1.573       .  S
C422        C817   1.580       .  S
C422        C854   1.571   1_545  S
C422        C873   1.595       .  S
C422        C966   1.577       .  S
C423        C761   1.585       .  S
C423        C789   1.584       .  S
C423        C845   1.569   1_655  S
C423       C1274   1.581       .  S
C424        C733   1.575       .  S
C424        C798   1.588       .  S
C424       C1190   1.594       .  S
C424       C1526   1.586       .  S
C425        C705   1.592       .  S
C425        C742   1.588       .  S
C425       C1041   1.579       .  S
C425       C1349   1.592       .  S
C426        C686   1.559       .  S
C426        C714   1.600       .  S
C426        C938   1.599       .  S
C426       C1125   1.581       .  S
In427       O429   2.254   1_655  S
In427       O430   2.201       .  S
In427       O438   2.234       .  S
In427       O432   2.274   1_655  S
In427       O434   2.222   1_655  S
In427       O435   2.226       .  S
In427       O436   2.258   1_655  S
In427       O439   2.260       .  S
C428        O434   1.256       .  A
C428        O436   1.263       .  A
C428       C3234   1.473       .  S
O429        C437   1.265       .  A
O430        C437   1.260   1_655  A
C431        O438   1.257   1_455  A
C431        O432   1.260       .  A
C431        C677   1.485       .  S
C433        O435   1.259       .  A
C433        O439   1.260       .  A
C433        C630   1.477       .  S
C437        C649   1.472       .  S
In440       O442   2.266   1_655  S
In440       O443   2.217       .  S
In440       O451   2.202       .  S
In440       O445   2.271   1_655  S
In440       O447   2.219       .  S
In440       O448   2.225       .  S
In440       O449   2.242       .  S
In440       O452   2.259       .  S
C441        O447   1.263       .  A
C441        O449   1.261       .  A
C441        C593   1.473       .  S
O442        C450   1.268       .  A
O443        C450   1.258   1_655  A
C444        O451   1.260       .  A
C444        O445   1.265   1_655  A
C444        C658   1.476       .  S
C446        O448   1.258       .  A
C446        O452   1.268       .  A
C446        C770   1.482       .  S
C450       C3290   1.479       .  S
In453       O455   2.229       .  S
In453       O456   2.257       .  S
In453       O464   2.241       .  S
In453       O458   2.226       .  S
In453       O460   2.246       .  S
In453       O461   2.202       .  S
In453       O462   2.212       .  S
In453       O465   2.304       .  S
C454        O460   1.262       .  A
C454        O462   1.261       .  A
C454        C602   1.472       .  S
O455        C463   1.259       .  A
O456        C463   1.269       .  A
C457        O464   1.266       .  A
C457        O458   1.262       .  A
C457        C565   1.482       .  S
C459        O461   1.258       .  A
C459        O465   1.269       .  A
C459       C3122   1.488       .  S
C463       C1246   1.484       .  S
In466       O468   2.221       .  S
In466       O469   2.233       .  S
In466       O477   2.206       .  S
In466       O471   2.291   1_545  S
In466       O473   2.259   1_545  S
In466       O474   2.221       .  S
In466       O475   2.235       .  S
In466       O478   2.247   1_545  S
C467        O473   1.265       .  A
C467        O475   1.257   1_565  A
C467       C3178   1.483       .  S
O468        C476   1.262       .  A
O469        C476   1.259       .  A
C470        O477   1.257   1_565  A
C470        O471   1.266       .  A
C470       C1097   1.485       .  S
C472        O474   1.258       .  A
C472        O478   1.264   1_545  A
C472        C537   1.473   1_545  S
C476        C621   1.465       .  S
In479       O481   2.241       .  S
In479       O482   2.256   1_545  S
In479       O490   2.251   1_545  S
In479       O484   2.202       .  S
In479       O486   2.250       .  S
In479       O487   2.297   1_545  S
In479       O488   2.222       .  S
In479       O491   2.217       .  S
C480        O486   1.265       .  A
C480        O488   1.263       .  A
C480        C509   1.479       .  S
O481        C489   1.258       .  A
O482        C489   1.267   1_565  A
C483        O490   1.263   1_545  A
C483        O484   1.262       .  A
C483        C546   1.476       .  S
C485        O487   1.267       .  A
C485        O491   1.258   1_565  A
C485       C3038   1.481       .  S
C489        C826   1.487       .  S
In492       O494   2.247       .  S
In492       O495   2.242       .  S
In492       O503   2.209       .  S
In492       O497   2.267       .  S
In492       O499   2.276       .  S
In492       O500   2.226       .  S
In492       O501   2.193       .  S
In492       O504   2.271       .  S
C493        O499   1.266       .  A
C493        O501   1.258       .  A
C493       C3066   1.473       .  S
O494        C502   1.261       .  A
O495        C502   1.265       .  A
C496        O503   1.259       .  A
C496        O497   1.265       .  A
C496        C910   1.481       .  S
C498        O500   1.261       .  A
C498        O504   1.263       .  A
C498        C574   1.480       .  S
C502        C518   1.480       .  S
C505        C506   1.403       .  A
C505        C510   1.400       .  A
C505        H515   1.083       .  S
C506        C511   1.485       .  S
C506        C507   1.411       .  A
C507        C508   1.398       .  A
C507        N512   1.429       .  S
C508        C509   1.404       .  A
C508        H513   1.084       .  S
C509        C510   1.412       .  A
C510        N514   1.428       .  S
C511        C516   1.411       .  A
C511        C520   1.403       .  A
N512        O527   1.262       .  A
N512        O528   1.262       .  A
N514        O525   1.262       .  A
N514        O526   1.262       .  A
C516        C517   1.399       .  A
C516        N521   1.429       .  S
C517        C518   1.403       .  A
C517        H522   1.084       .  S
C518        C519   1.414       .  A
C519        C520   1.400       .  A
C519        N523   1.429       .  S
C520        H524   1.083       .  S
N521        O531   1.262       .  A
N521        O532   1.262       .  A
N523        O529   1.262       .  A
N523        O530   1.262       .  A
C533        C534   1.399   1_545  A
C533        C538   1.393       .  A
C533        H543   1.084       .  S
C534        C539   1.474       .  S
C534        C535   1.409       .  A
C535        C536   1.399       .  A
C535        N540   1.428       .  S
C536        C537   1.403       .  A
C536        H541   1.084       .  S
C537        C538   1.413   1_565  A
C538        N542   1.429       .  S
C539        C544   1.409   1_565  A
C539        C548   1.401       .  A
N540        O555   1.262       .  A
N540        O556   1.262       .  A
N542        O553   1.262       .  A
N542        O554   1.262       .  A
C544        C545   1.390       .  A
C544        N549   1.430       .  S
C545        C546   1.402       .  A
C545        H550   1.084       .  S
C546        C547   1.414   1_545  A
C547        C548   1.402       .  A
C547        N551   1.428       .  S
C548        H552   1.084       .  S
N549        O559   1.262       .  A
N549        O560   1.262       .  A
N551        O557   1.262       .  A
N551        O558   1.262       .  A
C561        C562   1.402       .  A
C561        C566   1.397       .  A
C561        H571   1.084       .  S
C562        C567   1.486       .  S
C562        C563   1.411       .  A
C563        C564   1.402       .  A
C563        N568   1.428       .  S
C564        C565   1.405       .  A
C564        H569   1.084       .  S
C565        C566   1.414       .  A
C566        N570   1.429       .  S
C567        C572   1.412       .  A
C567        C576   1.404       .  A
N568        O583   1.262       .  A
N568        O584   1.262       .  A
N570        O581   1.262       .  A
N570        O582   1.262       .  A
C572        C573   1.397       .  A
C572        N577   1.430       .  S
C573        C574   1.401       .  A
C573        H578   1.084       .  S
C574        C575   1.413       .  A
C575        C576   1.404       .  A
C575        N579   1.428       .  S
C576        H580   1.083       .  S
N577        O587   1.262       .  A
N577        O588   1.262       .  A
N579        O585   1.262       .  A
N579        O586   1.262       .  A
C589        C590   1.403       .  A
C589        C594   1.397       .  A
C589        H599   1.084       .  S
C590        C595   1.477       .  S
C590        C591   1.410       .  A
C591        C592   1.396       .  A
C591        N596   1.429       .  S
C592        C593   1.402       .  A
C592        H597   1.084       .  S
C593        C594   1.411       .  A
C594        N598   1.429       .  S
C595        C600   1.409       .  A
C595        C604   1.404       .  A
N596        O611   1.262       .  A
N596        O612   1.262       .  A
N598        O609   1.262       .  A
N598        O610   1.262       .  A
C600        C601   1.395       .  A
C600        N605   1.428       .  S
C601        C602   1.402       .  A
C601        H606   1.084       .  S
C602        C603   1.411       .  A
C603        C604   1.398       .  A
C603        N607   1.429       .  S
C604        H608   1.084       .  S
N605        O615   1.262       .  A
N605        O616   1.262       .  A
N607        O613   1.262       .  A
N607        O614   1.262       .  A
C617        C618   1.400       .  A
C617        C622   1.397       .  A
C617        H627   1.084       .  S
C618        C623   1.468       .  S
C618        C619   1.408       .  A
C619        C620   1.393       .  A
C619        N624   1.429       .  S
C620        C621   1.400       .  A
C620        H625   1.084       .  S
C621        C622   1.411       .  A
C622        N626   1.429       .  S
C623        C628   1.404       .  A
C623        C632   1.399       .  A
N624        O639   1.262       .  A
N624        O640   1.262       .  A
N626        O637   1.261       .  A
N626        O638   1.261       .  A
C628        C629   1.396       .  A
C628        N633   1.429       .  S
C629        C630   1.407       .  A
C629        H634   1.084       .  S
C630        C631   1.413       .  A
C631        C632   1.396       .  A
C631        N635   1.428       .  S
C632        H636   1.084       .  S
N633        O643   1.262       .  A
N633        O644   1.261       .  A
N635        O641   1.262       .  A
N635        O642   1.262       .  A
C645        C646   1.401   1_455  A
C645        C650   1.401       .  A
C645        H655   1.084       .  S
C646        C651   1.470       .  S
C646        C647   1.406       .  A
C647        C648   1.393       .  A
C647        N652   1.429       .  S
C648        C649   1.403   1_655  A
C648        H653   1.084       .  S
C649        C650   1.412       .  A
C650        N654   1.428       .  S
C651        C656   1.405       .  A
C651        C660   1.401   1_655  A
N652        O667   1.262       .  A
N652        O668   1.262       .  A
N654        O665   1.261       .  A
N654        O666   1.262       .  A
C656        C657   1.393       .  A
C656        N661   1.429       .  S
C657        C658   1.404       .  A
C657        H662   1.084       .  S
C658        C659   1.412   1_655  A
C659        C660   1.402       .  A
C659        N663   1.428       .  S
C660        H664   1.084       .  S
N661        O671   1.262       .  A
N661        O672   1.261       .  A
N663        O669   1.262       .  A
N663        O670   1.262       .  A
C673        C674   1.403   1_455  A
C673        C678   1.401       .  A
C673        H683   1.084       .  S
C674        C679   1.484       .  S
C674        C675   1.409       .  A
C675        C676   1.398       .  A
C675        N680   1.430       .  S
C676        C677   1.407   1_655  A
C676        H681   1.084       .  S
C677        C678   1.414       .  A
C678        N682   1.428       .  S
C679        C684   1.406       .  A
C679        C688   1.396       .  A
N680        O695   1.262       .  A
N680        O696   1.262       .  A
N682        O693   1.262       .  A
N682        O694   1.262       .  A
C684        C685   1.395       .  A
C684        N689   1.428       .  S
C685        C686   1.411       .  A
C685        H690   1.077       .  S
C686        C687   1.438       .  A
C687        C688   1.401       .  A
C687        N691   1.434       .  S
C688        H692   1.084   1_655  S
N689        O699   1.262       .  A
N689        O700   1.262       .  A
N691        O697   1.260       .  A
N691        O698   1.258   1_655  A
C701        C702   1.410       .  A
C701        C706   1.422       .  A
C701        H711   1.084       .  S
C702        C707   1.508       .  S
C702        C703   1.404       .  A
C703        C704   1.401       .  A
C703        N708   1.429       .  S
C704        C705   1.425       .  A
C704        H709   1.083       .  S
C705        C706   1.432       .  A
C706        N710   1.429       .  S
C707        C712   1.413       .  A
C707        C716   1.391       .  A
N708        O723   1.262       .  A
N708        O724   1.262       .  A
N710        O721   1.262       .  A
N710        O722   1.261       .  A
C712        C713   1.417       .  A
C712        N717   1.428       .  S
C713        C714   1.421       .  A
C713        H718   1.080       .  S
C714        C715   1.439       .  A
C715        C716   1.405       .  A
C715        N719   1.424       .  S
C716        H720   1.085       .  S
N717        O727   1.262       .  A
N717        O728   1.261       .  A
N719        O725   1.263       .  A
N719        O726   1.262       .  A
C729        C730   1.404       .  A
C729        C734   1.418       .  A
C729        H739   1.083       .  S
C730        C735   1.506       .  S
C730        C731   1.407       .  A
C731        C732   1.402       .  A
C731        N736   1.429       .  S
C732        C733   1.418       .  A
C732        H737   1.084       .  S
C733        C734   1.435       .  A
C734        N738   1.429       .  S
C735        C740   1.405       .  A
C735        C744   1.396       .  A
N736        O751   1.262       .  A
N736        O752   1.262       .  A
N738        O749   1.262       .  A
N738        O750   1.261       .  A
C740        C741   1.413       .  A
C740        N745   1.429       .  S
C741        C742   1.424       .  A
C741        H746   1.083       .  S
C742        C743   1.447       .  A
C743        C744   1.411       .  A
C743        N747   1.433       .  S
C744        H748   1.084       .  S
N745        O755   1.262       .  A
N745        O756   1.262       .  A
N747        O753   1.262       .  A
N747        O754   1.261       .  A
C757        C758   1.395       .  A
C757        C762   1.403       .  A
C757        H767   1.084       .  S
C758        C763   1.482       .  S
C758        C759   1.403       .  A
C759        C760   1.395       .  A
C759        N764   1.428       .  S
C760        C761   1.421       .  A
C760        H765   1.079       .  S
C761        C762   1.431       .  A
C762        N766   1.425       .  S
C763        C768   1.411   1_655  A
C763        C772   1.400       .  A
N764        O779   1.262       .  A
N764        O780   1.261       .  A
N766        O777   1.262   1_655  A
N766        O778   1.262       .  A
C768        C769   1.401       .  A
C768        N773   1.428       .  S
C769        C770   1.402   1_455  A
C769        H774   1.084       .  S
C770        C771   1.418       .  A
C771        C772   1.399       .  A
C771        N775   1.430       .  S
C772        H776   1.084       .  S
N773        O783   1.262       .  A
N773        O784   1.262       .  A
N775        O781   1.262       .  A
N775        O782   1.262       .  A
C785        C786   1.405       .  A
C785        C790   1.414       .  A
C785        H795   1.082       .  S
C786        C791   1.508       .  S
C786        C787   1.415       .  A
C787        C788   1.401       .  A
C787        N792   1.430       .  S
C788        C789   1.411       .  A
C788        H793   1.082       .  S
C789        C790   1.433       .  A
C790        N794   1.432   1_655  S
C791        C796   1.409       .  A
C791        C800   1.398       .  A
N792        O807   1.262       .  A
N792        O808   1.262       .  A
N794        O805   1.262       .  A
N794        O806   1.262       .  A
C796        C797   1.409       .  A
C796        N801   1.429       .  S
C797        C798   1.422       .  A
C797        H802   1.075       .  S
C798        C799   1.440       .  A
C799        C800   1.404       .  A
C799        N803   1.428       .  S
C800        H804   1.083       .  S
N801        O811   1.262       .  A
N801        O812   1.262       .  A
N803        O809   1.262       .  A
N803        O810   1.262       .  A
C813        C814   1.394   1_565  A
C813        C818   1.400       .  A
C813        H823   1.084       .  S
C814        C819   1.490       .  S
C814        C815   1.407       .  A
C815        C816   1.402       .  A
C815        N820   1.428       .  S
C816        C817   1.419       .  A
C816        H821   1.082       .  S
C817        C818   1.437   1_545  A
C818        N822   1.430       .  S
C819        C824   1.413   1_545  A
C819        C828   1.403       .  A
N820        O835   1.262       .  A
N820        O836   1.262       .  A
N822        O833   1.262       .  A
N822        O834   1.261       .  A
C824        C825   1.400       .  A
C824        N829   1.429       .  S
C825        C826   1.402   1_565  A
C825        H830   1.084       .  S
C826        C827   1.417       .  A
C827        C828   1.404       .  A
C827        N831   1.429       .  S
C828        H832   1.083       .  S
N829        O839   1.262       .  A
N829        O840   1.262   1_565  A
N831        O837   1.262       .  A
N831        O838   1.262       .  A
C841        C842   1.400       .  A
C841        C846   1.411       .  A
C841        H851   1.083       .  S
C842        C847   1.493       .  S
C842        C843   1.403       .  A
C843        C844   1.401       .  A
C843        N848   1.428       .  S
C844        C845   1.415       .  A
C844        H849   1.078       .  S
C845        C846   1.432       .  A
C846        N850   1.431       .  S
C847        C852   1.407       .  A
C847        C856   1.393       .  A
N848        O863   1.262       .  A
N848        O864   1.262       .  A
N850        O861   1.262       .  A
N850        O862   1.261   1_455  A
C852        C853   1.415       .  A
C852        N857   1.428       .  S
C853        C854   1.420       .  A
C853        H858   1.079       .  S
C854        C855   1.437       .  A
C855        C856   1.399       .  A
C855        N859   1.432       .  S
C856        H860   1.085       .  S
N857        O867   1.262       .  A
N857        O868   1.261       .  A
N859        O865   1.262       .  A
N859        O866   1.262       .  A
C869        C870   1.395       .  A
C869        C874   1.402       .  A
C869        H879   1.083       .  S
C870        C875   1.518       .  S
C870        C871   1.413       .  A
C871        C872   1.414   1_545  A
C871        N876   1.427   1_545  S
C872        C873   1.422   1_565  A
C872        H877   1.076       .  S
C873        C874   1.442       .  A
C874        N878   1.425       .  S
C875        C880   1.415       .  A
C875        C884   1.403       .  A
N876        O891   1.262       .  A
N876        O892   1.262       .  A
N878        O889   1.262       .  A
N878        O890   1.262       .  A
C880        C881   1.397       .  A
C880        N885   1.432       .  S
C881        C882   1.416       .  A
C881        H886   1.083       .  S
C882        C883   1.445       .  A
C883        C884   1.418       .  A
C883        N887   1.431       .  S
C884        H888   1.084       .  S
N885        O895   1.262       .  A
N885        O896   1.263       .  A
N887        O893   1.261       .  A
N887        O894   1.263       .  A
C897        C898   1.389       .  A
C897        C902   1.394       .  A
C897        H907   1.085       .  S
C898        C903   1.472       .  S
C898        C899   1.401       .  A
C899        C900   1.400       .  A
C899        N904   1.428       .  S
C900        C901   1.418       .  A
C900        H905   1.076       .  S
C901        C902   1.438       .  A
C902        N906   1.433       .  S
C903        C908   1.405       .  A
C903        C912   1.401       .  A
N904        O919   1.262       .  A
N904        O920   1.262       .  A
N906        O917   1.262       .  A
N906        O918   1.262       .  A
C908        C909   1.395       .  A
C908        N913   1.429       .  S
C909        C910   1.407       .  A
C909        H914   1.084       .  S
C910        C911   1.413       .  A
C911        C912   1.402       .  A
C911        N915   1.428       .  S
C912        H916   1.084       .  S
N913        O923   1.262       .  A
N913        O924   1.262       .  A
N915        O921   1.262       .  A
N915        O922   1.262       .  A
C925        C926   1.410       .  A
C925        C930   1.427       .  A
C925        H935   1.083       .  S
C926        C931   1.518       .  S
C926        C927   1.409       .  A
C927        C928   1.398       .  A
C927        N932   1.430       .  S
C928        C929   1.421       .  A
C928        H933   1.077       .  S
C929        C930   1.434       .  A
C930        N934   1.429       .  S
C931        C936   1.415       .  A
C931        C940   1.399       .  A
N932        O947   1.262       .  A
N932        O948   1.262       .  A
N934        O945   1.262       .  A
N934        O946   1.262       .  A
C936        C937   1.420   1_455  A
C936        N941   1.428       .  S
C937        C938   1.424       .  A
C937        H942   1.078       .  S
C938        C939   1.439   1_655  A
C939        C940   1.410       .  A
C939        N943   1.431       .  S
C940        H944   1.084       .  S
N941        O951   1.262       .  A
N941        O952   1.262       .  A
N943        O949   1.262       .  A
N943        O950   1.262       .  A
C953        C954   1.402       .  A
C953        C958   1.408       .  A
C953        H963   1.083       .  S
C954        C959   1.493       .  S
C954        C955   1.408       .  A
C955        C956   1.398       .  A
C955        N960   1.428       .  S
C956        C957   1.416       .  A
C956        H961   1.081       .  S
C957        C958   1.429       .  A
C958        N962   1.431       .  S
C959        C964   1.407       .  A
C959        C968   1.402       .  A
N960        O975   1.262       .  A
N960        O976   1.262       .  A
N962        O973   1.262       .  A
N962        O974   1.262       .  A
C964        C965   1.398       .  A
C964        N969   1.429       .  S
C965        C966   1.417       .  A
C965        H970   1.077       .  S
C966        C967   1.432       .  A
C967        C968   1.411       .  A
C967        N971   1.431       .  S
C968        H972   1.083       .  S
N969        O979   1.262       .  A
N969        O980   1.262       .  A
N971        O977   1.262   1_545  A
N971        O978   1.261       .  A
C981        C982   1.403       .  A
C981        C986   1.413       .  A
C981        H991   1.083       .  S
C982        C987   1.502       .  S
C982        C983   1.407       .  A
C983        C984   1.404       .  A
C983        N988   1.431       .  S
C984        C985   1.420       .  A
C984        H989   1.080       .  S
C985        C986   1.431       .  A
C986        N990   1.431       .  S
C987        C992   1.406       .  A
C987        C996   1.398       .  A
N988       O1003   1.262       .  A
N988       O1004   1.262       .  A
N990       O1001   1.262       .  A
N990       O1002   1.262       .  A
C992        C993   1.408       .  A
C992        N997   1.430       .  S
C993        C994   1.420       .  A
C993        H998   1.072       .  S
C994        C995   1.439       .  A
C995        C996   1.414       .  A
C995        N999   1.430       .  S
C996       H1000   1.084       .  S
N997       O1007   1.261       .  A
N997       O1008   1.262       .  A
N999       O1005   1.262       .  A
N999       O1006   1.263       .  A
C1009      C1010   1.389       .  A
C1009      C1014   1.404       .  A
C1009      H1019   1.082       .  S
C1010      C1015   1.520       .  S
C1010      C1011   1.424       .  A
C1011      C1012   1.416       .  A
C1011      N1016   1.429       .  S
C1012      C1013   1.410       .  A
C1012      H1017   1.081       .  S
C1013      C1014   1.453       .  A
C1014      N1018   1.430       .  S
C1015      C1020   1.427       .  A
C1015      C1024   1.392       .  A
N1016      O1031   1.262       .  A
N1016      O1032   1.262       .  A
N1018      O1029   1.263       .  A
N1018      O1030   1.261       .  A
C1020      C1021   1.421       .  A
C1020      N1025   1.429       .  S
C1021      C1022   1.411       .  A
C1021      H1026   1.081       .  S
C1022      C1023   1.443       .  A
C1023      C1024   1.397       .  A
C1023      N1027   1.433       .  S
C1024      H1028   1.081       .  S
N1025      O1035   1.262       .  A
N1025      O1036   1.262       .  A
N1027      O1033   1.261       .  A
N1027      O1034   1.263       .  A
C1037      C1038   1.401       .  A
C1037      C1042   1.407       .  A
C1037      H1047   1.082       .  S
C1038      C1043   1.502       .  S
C1038      C1039   1.408       .  A
C1039      C1040   1.401       .  A
C1039      N1044   1.429       .  S
C1040      C1041   1.418       .  A
C1040      H1045   1.076       .  S
C1041      C1042   1.434       .  A
C1042      N1046   1.431       .  S
C1043      C1048   1.409       .  A
C1043      C1052   1.406       .  A
N1044      O1059   1.262       .  A
N1044      O1060   1.262       .  A
N1046      O1057   1.262       .  A
N1046      O1058   1.261       .  A
C1048      C1049   1.396       .  A
C1048      N1053   1.430       .  S
C1049      C1050   1.419       .  A
C1049      H1054   1.081       .  S
C1050      C1051   1.428       .  A
C1051      C1052   1.411       .  A
C1051      N1055   1.431       .  S
C1052      H1056   1.083       .  S
N1053      O1063   1.262       .  A
N1053      O1064   1.262       .  A
N1055      O1061   1.262       .  A
N1055      O1062   1.262       .  A
C1065      C1066   1.395       .  A
C1065      C1070   1.402       .  A
C1065      H1075   1.084       .  S
C1066      C1071   1.504       .  S
C1066      C1067   1.409       .  A
C1067      C1068   1.420       .  A
C1067      N1072   1.428       .  S
C1068      C1069   1.420       .  A
C1068      H1073   1.080       .  S
C1069      C1070   1.436       .  A
C1070      N1074   1.429       .  S
C1071      C1076   1.402       .  A
C1071      C1080   1.405       .  A
N1072      O1087   1.262       .  A
N1072      O1088   1.262       .  A
N1074      O1085   1.262       .  A
N1074      O1086   1.262       .  A
C1076      C1077   1.397       .  A
C1076      N1081   1.429       .  S
C1077      C1078   1.422       .  A
C1077      H1082   1.078       .  S
C1078      C1079   1.435       .  A
C1079      C1080   1.422       .  A
C1079      N1083   1.429       .  S
C1080      H1084   1.083       .  S
N1081      O1091   1.262       .  A
N1081      O1092   1.262       .  A
N1083      O1089   1.262       .  A
N1083      O1090   1.262       .  A
C1093      C1094   1.404       .  A
C1093      C1098   1.405       .  A
C1093      H1103   1.084       .  S
C1094      C1099   1.484       .  S
C1094      C1095   1.409       .  A
C1095      C1096   1.396       .  A
C1095      N1100   1.428       .  S
C1096      C1097   1.405       .  A
C1096      H1101   1.084       .  S
C1097      C1098   1.413       .  A
C1098      N1102   1.427       .  S
C1099      C1104   1.405       .  A
C1099      C1108   1.400       .  A
N1100      O1115   1.262       .  A
N1100      O1116   1.262   1_565  A
N1102      O1113   1.262       .  A
N1102      O1114   1.262       .  A
C1104      C1105   1.396       .  A
C1104      N1109   1.428   1_565  S
C1105      C1106   1.414       .  A
C1105      H1110   1.078   1_565  S
C1106      C1107   1.431       .  A
C1107      C1108   1.407       .  A
C1107      N1111   1.432       .  S
C1108      H1112   1.084       .  S
N1109      O1119   1.262       .  A
N1109      O1120   1.262       .  A
N1111      O1117   1.262       .  A
N1111      O1118   1.261       .  A
C1121      C1122   1.394       .  A
C1121      C1126   1.404       .  A
C1121      H1131   1.084       .  S
C1122      C1127   1.497       .  S
C1122      C1123   1.406       .  A
C1123      C1124   1.405       .  A
C1123      N1128   1.428       .  S
C1124      C1125   1.418       .  A
C1124      H1129   1.084       .  S
C1125      C1126   1.453       .  A
C1126      N1130   1.439       .  S
C1127      C1132   1.406       .  A
C1127      C1136   1.399       .  A
N1128      O1143   1.262       .  A
N1128      O1144   1.262       .  A
N1130      O1141   1.260       .  A
N1130      O1142   1.262       .  A
C1132      C1133   1.397       .  A
C1132      N1137   1.430       .  S
C1133      C1134   1.416       .  A
C1133      H1138   1.076       .  S
C1134      C1135   1.438       .  A
C1135      C1136   1.412       .  A
C1135      N1139   1.428   1_545  S
C1136      H1140   1.084       .  S
N1137      O1147   1.262       .  A
N1137      O1148   1.262       .  A
N1139      O1145   1.262       .  A
N1139      O1146   1.262       .  A
C1149      C1150   1.390       .  A
C1149      C1154   1.400   1_545  A
C1149      H1159   1.080       .  S
C1150      C1155   1.516       .  S
C1150      C1151   1.424       .  A
C1151      C1152   1.409   1_545  A
C1151      N1156   1.430       .  S
C1152      C1153   1.408       .  A
C1152      H1157   1.080       .  S
C1153      C1154   1.455       .  A
C1154      N1158   1.433   1_565  S
C1155      C1160   1.428       .  A
C1155      C1164   1.393       .  A
N1156      O1171   1.263       .  A
N1156      O1172   1.262   1_545  A
N1158      O1169   1.262   1_545  A
N1158      O1170   1.262       .  A
C1160      C1161   1.416       .  A
C1160      N1165   1.429       .  S
C1161      C1162   1.408       .  A
C1161      H1166   1.081       .  S
C1162      C1163   1.440       .  A
C1163      C1164   1.392       .  A
C1163      N1167   1.433       .  S
C1164      H1168   1.079       .  S
N1165      O1175   1.262       .  A
N1165      O1176   1.262   1_545  A
N1167      O1173   1.261       .  A
N1167      O1174   1.262       .  A
C1177      C1178   1.398       .  A
C1177      C1182   1.410       .  A
C1177      H1187   1.084       .  S
C1178      C1183   1.498       .  S
C1178      C1179   1.405       .  A
C1179      C1180   1.404       .  A
C1179      N1184   1.429       .  S
C1180      C1181   1.422       .  A
C1180      H1185   1.083       .  S
C1181      C1182   1.439       .  A
C1182      N1186   1.428       .  S
C1183      C1188   1.405       .  A
C1183      C1192   1.398       .  A
N1184      O1199   1.262       .  A
N1184      O1200   1.262       .  A
N1186      O1197   1.261       .  A
N1186      O1198   1.262       .  A
C1188      C1189   1.408       .  A
C1188      N1193   1.429       .  S
C1189      C1190   1.424       .  A
C1189      H1194   1.076       .  S
C1190      C1191   1.433       .  A
C1191      C1192   1.412       .  A
C1191      N1195   1.428       .  S
C1192      H1196   1.084       .  S
N1193      O1203   1.261       .  A
N1193      O1204   1.262       .  A
N1195      O1201   1.261       .  A
N1195      O1202   1.262       .  A
C1205      C1206   1.402       .  A
C1205      C1210   1.414       .  A
C1205      H1215   1.084       .  S
C1206      C1211   1.504       .  S
C1206      C1207   1.403       .  A
C1207      C1208   1.408       .  A
C1207      N1212   1.429       .  S
C1208      C1209   1.425       .  A
C1208      H1213   1.084       .  S
C1209      C1210   1.437       .  A
C1210      N1214   1.436       .  S
C1211      C1216   1.400       .  A
C1211      C1220   1.404       .  A
N1212      O1227   1.262       .  A
N1212      O1228   1.261       .  A
N1214      O1225   1.263       .  A
N1214      O1226   1.260       .  A
C1216      C1217   1.402       .  A
C1216      N1221   1.430       .  S
C1217      C1218   1.427       .  A
C1217      H1222   1.083       .  S
C1218      C1219   1.440       .  A
C1219      C1220   1.421       .  A
C1219      N1223   1.428       .  S
C1220      H1224   1.084       .  S
N1221      O1231   1.262       .  A
N1221      O1232   1.262       .  A
N1223      O1229   1.262       .  A
N1223      O1230   1.261       .  A
C1233      C1234   1.397       .  A
C1233      C1238   1.404       .  A
C1233      H1243   1.084       .  S
C1234      C1239   1.491       .  S
C1234      C1235   1.407       .  A
C1235      C1236   1.395       .  A
C1235      N1240   1.429       .  S
C1236      C1237   1.416       .  A
C1236      H1241   1.076       .  S
C1237      C1238   1.436       .  A
C1238      N1242   1.428       .  S
C1239      C1244   1.414       .  A
C1239      C1248   1.403       .  A
N1240      O1255   1.262       .  A
N1240      O1256   1.262       .  A
N1242      O1253   1.261       .  A
N1242      O1254   1.262       .  A
C1244      C1245   1.401       .  A
C1244      N1249   1.429       .  S
C1245      C1246   1.402       .  A
C1245      H1250   1.084       .  S
C1246      C1247   1.416       .  A
C1247      C1248   1.400       .  A
C1247      N1251   1.429       .  S
C1248      H1252   1.083       .  S
N1249      O1259   1.262       .  A
N1249      O1260   1.262       .  A
N1251      O1257   1.262       .  A
N1251      O1258   1.262       .  A
C1261      C1262   1.402       .  A
C1261      C1266   1.412       .  A
C1261      H1271   1.084       .  S
C1262      C1267   1.491       .  S
C1262      C1263   1.405       .  A
C1263      C1264   1.398       .  A
C1263      N1268   1.429       .  S
C1264      C1265   1.418       .  A
C1264      H1269   1.077       .  S
C1265      C1266   1.431       .  A
C1266      N1270   1.431       .  S
C1267      C1272   1.401       .  A
C1267      C1276   1.400       .  A
N1268      O1283   1.261       .  A
N1268      O1284   1.262       .  A
N1270      O1281   1.262       .  A
N1270      O1282   1.262       .  A
C1272      C1273   1.394       .  A
C1272      N1277   1.430       .  S
C1273      C1274   1.420       .  A
C1273      H1278   1.080       .  S
C1274      C1275   1.443       .  A
C1275      C1276   1.414       .  A
C1275      N1279   1.435       .  S
C1276      H1280   1.084       .  S
N1277      O1287   1.262       .  A
N1277      O1288   1.261       .  A
N1279      O1285   1.261       .  A
N1279      O1286   1.260       .  A
C1289      C1290   1.409       .  A
C1289      C1294   1.406       .  A
C1289      H1299   1.078       .  S
C1290      C1295   1.537       .  S
C1290      C1291   1.426       .  A
C1291      C1292   1.415       .  A
C1291      N1296   1.428       .  S
C1292      C1293   1.415       .  A
C1292      H1297   1.076       .  S
C1293      C1294   1.428       .  A
C1294      N1298   1.431       .  S
C1295      C1300   1.419       .  A
C1295      C1304   1.414       .  A
N1296      O1311   1.262       .  A
N1296      O1312   1.262       .  A
N1298      O1309   1.262       .  A
N1298      O1310   1.262       .  A
C1300      C1301   1.398       .  A
C1300      N1305   1.431       .  S
C1301      C1302   1.419       .  A
C1301      H1306   1.082       .  S
C1302      C1303   1.436       .  A
C1303      C1304   1.423       .  A
C1303      N1307   1.426       .  S
C1304      H1308   1.077       .  S
N1305      O1315   1.263       .  A
N1305      O1316   1.262       .  A
N1307      O1313   1.263       .  A
N1307      O1314   1.261       .  A
C1317      C1318   1.384       .  A
C1317      C1322   1.392       .  A
C1317      H1327   1.083       .  S
C1318      C1323   1.474       .  S
C1318      C1319   1.397       .  A
C1319      C1320   1.406       .  A
C1319      N1324   1.428       .  S
C1320      C1321   1.426       .  A
C1320      H1325   1.081       .  S
C1321      C1322   1.446       .  A
C1322      N1326   1.432       .  S
C1323      C1328   1.396       .  A
C1323      C1332   1.394       .  A
N1324      O1339   1.262       .  A
N1324      O1340   1.262       .  A
N1326      O1337   1.262       .  A
N1326      O1338   1.262       .  A
C1328      C1329   1.400       .  A
C1328      N1333   1.431       .  S
C1329      C1330   1.425       .  A
C1329      H1334   1.075       .  S
C1330      C1331   1.434       .  A
C1331      C1332   1.405       .  A
C1331      N1335   1.429       .  S
C1332      H1336   1.084       .  S
N1333      O1343   1.261       .  A
N1333      O1344   1.262       .  A
N1335      O1341   1.262       .  A
N1335      O1342   1.262       .  A
C1345      C1346   1.397       .  A
C1345      C1350   1.407       .  A
C1345      H1355   1.084       .  S
C1346      C1351   1.491       .  S
C1346      C1347   1.404       .  A
C1347      C1348   1.398       .  A
C1347      N1352   1.429       .  S
C1348      C1349   1.422       .  A
C1348      H1353   1.080       .  S
C1349      C1350   1.433       .  A
C1350      N1354   1.426       .  S
C1351      C1356   1.410       .  A
C1351      C1360   1.404       .  A
N1352      O1367   1.262       .  A
N1352      O1368   1.262       .  A
N1354      O1365   1.263       .  A
N1354      O1366   1.261       .  A
C1356      C1357   1.400       .  A
C1356      N1361   1.429       .  S
C1357      C1358   1.407       .  A
C1357      H1362   1.084       .  S
C1358      C1359   1.414       .  A
C1359      C1360   1.405       .  A
C1359      N1363   1.428       .  S
C1360      H1364   1.083       .  S
N1361      O1371   1.262       .  A
N1361      O1372   1.262       .  A
N1363      O1369   1.262       .  A
N1363      O1370   1.262       .  A
C1373      C1374   1.400       .  A
C1373      C1378   1.402       .  A
C1373      H1383   1.084       .  S
C1374      C1379   1.474       .  S
C1374      C1375   1.405       .  A
C1375      C1376   1.399       .  A
C1375      N1380   1.429       .  S
C1376      C1377   1.407       .  A
C1376      H1381   1.084       .  S
C1377      C1378   1.414       .  A
C1378      N1382   1.428       .  S
C1379      C1384   1.406       .  A
C1379      C1388   1.401       .  A
N1380      O1395   1.262       .  A
N1380      O1396   1.262       .  A
N1382      O1393   1.262       .  A
N1382      O1394   1.262       .  A
C1384      C1385   1.398       .  A
C1384      N1389   1.427       .  S
C1385      C1386   1.405       .  A
C1385      H1390   1.084       .  S
C1386      C1387   1.413       .  A
C1387      C1388   1.398       .  A
C1387      N1391   1.429       .  S
C1388      H1392   1.084       .  S
N1389      O1399   1.262       .  A
N1389      O1400   1.262       .  A
N1391      O1397   1.262       .  A
N1391      O1398   1.262       .  A
C1401      C1402   1.406       .  A
C1401      C1406   1.405       .  A
C1401      H1411   1.084       .  S
C1402      C1407   1.483       .  S
C1402      C1403   1.412       .  A
C1403      C1404   1.390       .  A
C1403      N1408   1.428       .  S
C1404      C1405   1.401       .  A
C1404      H1409   1.084       .  S
C1405      C1406   1.411       .  A
C1406      N1410   1.428       .  S
C1407      C1412   1.406       .  A
C1407      C1416   1.397       .  A
N1408      O1423   1.262       .  A
N1408      O1424   1.261       .  A
N1410      O1421   1.262       .  A
N1410      O1422   1.262       .  A
C1412      C1413   1.399       .  A
C1412      N1417   1.429       .  S
C1413      C1414   1.415       .  A
C1413      H1418   1.079       .  S
C1414      C1415   1.432       .  A
C1415      C1416   1.400       .  A
C1415      N1419   1.429       .  S
C1416      H1420   1.084       .  S
N1417      O1427   1.262       .  A
N1417      O1428   1.262       .  A
N1419      O1425   1.262       .  A
N1419      O1426   1.262       .  A
C1429      C1430   1.403       .  A
C1429      C1434   1.401       .  A
C1429      H1439   1.084       .  S
C1430      C1435   1.481       .  S
C1430      C1431   1.408       .  A
C1431      C1432   1.398       .  A
C1431      N1436   1.428       .  S
C1432      C1433   1.404       .  A
C1432      H1437   1.084       .  S
C1433      C1434   1.414       .  A
C1434      N1438   1.429       .  S
C1435      C1440   1.410       .  A
C1435      C1444   1.402       .  A
N1436      O1451   1.262       .  A
N1436      O1452   1.261       .  A
N1438      O1449   1.262       .  A
N1438      O1450   1.262       .  A
C1440      C1441   1.399       .  A
C1440      N1445   1.429       .  S
C1441      C1442   1.403       .  A
C1441      H1446   1.084       .  S
C1442      C1443   1.413       .  A
C1443      C1444   1.401       .  A
C1443      N1447   1.429       .  S
C1444      H1448   1.084       .  S
N1445      O1455   1.262       .  A
N1445      O1456   1.262       .  A
N1447      O1453   1.262       .  A
N1447      O1454   1.262       .  A
C1457      C1458   1.402       .  A
C1457      C1462   1.400       .  A
C1457      H1467   1.084       .  S
C1458      C1463   1.479       .  S
C1458      C1459   1.409       .  A
C1459      C1460   1.395       .  A
C1459      N1464   1.429       .  S
C1460      C1461   1.403       .  A
C1460      H1465   1.084       .  S
C1461      C1462   1.413       .  A
C1462      N1466   1.428       .  S
C1463      C1468   1.400       .  A
C1463      C1472   1.396       .  A
N1464      O1479   1.262       .  A
N1464      O1480   1.262   1_545  A
N1466      O1477   1.262       .  A
N1466      O1478   1.262       .  A
C1468      C1469   1.395       .  A
C1468      N1473   1.429       .  S
C1469      C1470   1.423       .  A
C1469      H1474   1.077       .  S
C1470      C1471   1.435       .  A
C1471      C1472   1.401       .  A
C1471      N1475   1.433       .  S
C1472      H1476   1.084       .  S
N1473      O1483   1.262       .  A
N1473      O1484   1.262       .  A
N1475      O1481   1.262       .  A
N1475      O1482   1.262       .  A
C1485      C1486   1.402       .  A
C1485      C1490   1.403       .  A
C1485      H1495   1.084       .  S
C1486      C1491   1.484       .  S
C1486      C1487   1.408       .  A
C1487      C1488   1.400       .  A
C1487      N1492   1.428       .  S
C1488      C1489   1.405       .  A
C1488      H1493   1.084       .  S
C1489      C1490   1.415       .  A
C1490      N1494   1.429       .  S
C1491      C1496   1.408       .  A
C1491      C1500   1.403       .  A
N1492      O1507   1.262       .  A
N1492      O1508   1.262       .  A
N1494      O1505   1.262       .  A
N1494      O1506   1.262       .  A
C1496      C1497   1.399       .  A
C1496      N1501   1.429       .  S
C1497      C1498   1.406       .  A
C1497      H1502   1.084       .  S
C1498      C1499   1.415       .  A
C1499      C1500   1.406       .  A
C1499      N1503   1.428       .  S
C1500      H1504   1.084       .  S
N1501      O1511   1.262       .  A
N1501      O1512   1.262       .  A
N1503      O1509   1.262       .  A
N1503      O1510   1.262       .  A
C1513      C1514   1.407       .  A
C1513      C1518   1.403       .  A
C1513      H1523   1.084       .  S
C1514      C1519   1.489       .  S
C1514      C1515   1.411       .  A
C1515      C1516   1.398       .  A
C1515      N1520   1.429       .  S
C1516      C1517   1.405       .  A
C1516      H1521   1.084       .  S
C1517      C1518   1.412       .  A
C1518      N1522   1.428       .  S
C1519      C1524   1.406       .  A
C1519      C1528   1.395       .  A
N1520      O1535   1.262       .  A
N1520      O1536   1.262       .  A
N1522      O1533   1.262       .  A
N1522      O1534   1.262       .  A
C1524      C1525   1.398       .  A
C1524      N1529   1.429       .  S
C1525      C1526   1.419       .  A
C1525      H1530   1.082       .  S
C1526      C1527   1.443       .  A
C1527      C1528   1.402       .  A
C1527      N1531   1.432       .  S
C1528      H1532   1.085       .  S
N1529      O1539   1.262       .  A
N1529      O1540   1.262       .  A
N1531      O1537   1.262       .  A
N1531      O1538   1.262       .  A
C1541      C1542   1.403       .  A
C1541      C1546   1.402       .  A
C1541      H1551   1.084       .  S
C1542      C1547   1.476       .  S
C1542      C1543   1.406       .  A
C1543      C1544   1.392       .  A
C1543      N1548   1.429       .  S
C1544      C1545   1.404       .  A
C1544      H1549   1.084       .  S
C1545      C1546   1.415       .  A
C1546      N1550   1.429       .  S
C1547      C1552   1.409       .  A
C1547      C1556   1.402       .  A
N1548      O1563   1.262       .  A
N1548      O1564   1.261       .  A
N1550      O1561   1.262       .  A
N1550      O1562   1.262       .  A
C1552      C1553   1.396       .  A
C1552      N1557   1.428       .  S
C1553      C1554   1.401       .  A
C1553      H1558   1.084       .  S
C1554      C1555   1.412       .  A
C1555      C1556   1.397       .  A
C1555      N1559   1.430       .  S
C1556      H1560   1.084       .  S
N1557      O1567   1.262       .  A
N1557      O1568   1.262       .  A
N1559      O1565   1.262       .  A
N1559      O1566   1.262       .  A
C1569      C1570   1.403       .  A
C1569      C1574   1.403       .  A
C1569      H1579   1.083       .  S
C1570      C1575   1.478       .  S
C1570      C1571   1.409       .  A
C1571      C1572   1.393       .  A
C1571      N1576   1.430       .  S
C1572      C1573   1.403       .  A
C1572      H1577   1.084       .  S
C1573      C1574   1.414       .  A
C1574      N1578   1.428       .  S
C1575      C1580   1.401       .  A
C1575      C1584   1.395       .  A
N1576      O1591   1.262       .  A
N1576      O1592   1.262       .  A
N1578      O1589   1.262       .  A
N1578      O1590   1.262       .  A
C1580      C1581   1.396       .  A
C1580      N1585   1.428       .  S
C1581      C1582   1.420       .  A
C1581      H1586   1.078       .  S
C1582      C1583   1.435       .  A
C1583      C1584   1.399       .  A
C1583      N1587   1.429       .  S
C1584      H1588   1.084       .  S
N1585      O1595   1.262       .  A
N1585      O1596   1.261       .  A
N1587      O1593   1.262       .  A
N1587      O1594   1.261       .  A
C1597      C1598   1.402       .  A
C1597      C1602   1.405       .  A
C1597      H1607   1.084       .  S
C1598      C1603   1.479       .  S
C1598      C1599   1.409       .  A
C1599      C1600   1.394       .  A
C1599      N1604   1.430       .  S
C1600      C1601   1.403       .  A
C1600      H1605   1.084       .  S
C1601      C1602   1.416       .  A
C1602      N1606   1.429       .  S
C1603      C1608   1.409       .  A
C1603      C1612   1.400       .  A
N1604      O1619   1.262       .  A
N1604      O1620   1.261       .  A
N1606      O1617   1.262       .  A
N1606      O1618   1.262       .  A
C1608      C1609   1.402       .  A
C1608      N1613   1.428       .  S
C1609      C1610   1.406       .  A
C1609      H1614   1.084       .  S
C1610      C1611   1.414       .  A
C1611      C1612   1.394       .  A
C1611      N1615   1.429       .  S
C1612      H1616   1.084       .  S
N1613      O1623   1.262       .  A
N1613      O1624   1.262       .  A
N1615      O1621   1.262       .  A
N1615      O1622   1.262       .  A
C1625      C1626   1.401       .  A
C1625      C1630   1.398       .  A
C1625      H1635   1.084       .  S
C1626      C1631   1.473       .  S
C1626      C1627   1.405       .  A
C1627      C1628   1.399       .  A
C1627      N1632   1.427       .  S
C1628      C1629   1.405       .  A
C1628      H1633   1.084       .  S
C1629      C1630   1.412       .  A
C1630      N1634   1.429       .  S
C1631      C1636   1.406       .  A
C1631      C1640   1.402       .  A
N1632      O1647   1.262       .  A
N1632      O1648   1.262       .  A
N1634      O1645   1.262       .  A
N1634      O1646   1.262       .  A
C1636      C1637   1.394       .  A
C1636      N1641   1.429       .  S
C1637      C1638   1.402       .  A
C1637      H1642   1.084       .  S
C1638      C1639   1.412       .  A
C1639      C1640   1.404       .  A
C1639      N1643   1.428       .  S
C1640      H1644   1.084       .  S
N1641      O1651   1.262       .  A
N1641      O1652   1.262       .  A
N1643      O1649   1.262       .  A
N1643      O1650   1.262       .  A
C1653      C1654   1.400       .  A
C1653      C1658   1.402       .  A
C1653      H1663   1.084       .  S
C1654      C1659   1.473       .  S
C1654      C1655   1.406       .  A
C1655      C1656   1.394       .  A
C1655      N1660   1.429       .  S
C1656      C1657   1.405       .  A
C1656      H1661   1.084   1_545  S
C1657      C1658   1.414       .  A
C1658      N1662   1.428       .  S
C1659      C1664   1.402       .  A
C1659      C1668   1.389       .  A
N1660      O1675   1.262   1_545  A
N1660      O1676   1.262       .  A
N1662      O1673   1.262       .  A
N1662      O1674   1.262       .  A
C1664      C1665   1.400       .  A
C1664      N1669   1.428       .  S
C1665      C1666   1.415       .  A
C1665      H1670   1.076       .  S
C1666      C1667   1.441       .  A
C1667      C1668   1.396       .  A
C1667      N1671   1.434       .  S
C1668      H1672   1.085       .  S
N1669      O1679   1.262       .  A
N1669      O1680   1.262       .  A
N1671      O1677   1.262       .  A
N1671      O1678   1.262       .  A
C1681      C1682   1.404       .  A
C1681      C1686   1.403       .  A
C1681      H1691   1.082       .  S
C1682      C1687   1.491       .  S
C1682      C1683   1.414       .  A
C1683      C1684   1.399       .  A
C1683      N1688   1.430       .  S
C1684      C1685   1.404       .  A
C1684      H1689   1.084       .  S
C1685      C1686   1.414       .  A
C1686      N1690   1.428       .  S
C1687      C1692   1.414       .  A
C1687      C1696   1.404       .  A
N1688      O1703   1.262       .  A
N1688      O1704   1.262       .  A
N1690      O1701   1.262       .  A
N1690      O1702   1.262       .  A
C1692      C1693   1.402       .  A
C1692      N1697   1.429       .  S
C1693      C1694   1.404       .  A
C1693      H1698   1.084       .  S
C1694      C1695   1.413       .  A
C1695      C1696   1.398       .  A
C1695      N1699   1.429       .  S
C1696      H1700   1.083       .  S
N1697      O1707   1.262       .  A
N1697      O1708   1.262       .  A
N1699      O1705   1.262       .  A
N1699      O1706   1.262       .  A
C1709      C1710   1.406   1_545  A
C1709      C1714   1.407       .  A
C1709      H1719   1.083       .  S
C1710      C1715   1.490       .  S
C1710      C1711   1.410       .  A
C1711      C1712   1.395       .  A
C1711      N1716   1.429       .  S
C1712      C1713   1.404       .  A
C1712      H1717   1.084       .  S
C1713      C1714   1.415   1_565  A
C1714      N1718   1.429       .  S
C1715      C1720   1.410   1_565  A
C1715      C1724   1.403       .  A
N1716      O1731   1.262       .  A
N1716      O1732   1.262       .  A
N1718      O1729   1.262       .  A
N1718      O1730   1.262       .  A
C1720      C1721   1.402       .  A
C1720      N1725   1.428       .  S
C1721      C1722   1.405   1_545  A
C1721      H1726   1.084       .  S
C1722      C1723   1.417       .  A
C1723      C1724   1.402       .  A
C1723      N1727   1.429       .  S
C1724      H1728   1.084       .  S
N1725      O1735   1.262       .  A
N1725      O1736   1.262       .  A
N1727      O1733   1.262       .  A
N1727      O1734   1.262       .  A
C1737      C1738   1.398       .  A
C1737      C1742   1.392       .  A
C1737      H1747   1.085       .  S
C1738      C1743   1.473       .  S
C1738      C1739   1.407       .  A
C1739      C1740   1.401       .  A
C1739      N1744   1.427       .  S
C1740      C1741   1.405       .  A
C1740      H1745   1.084       .  S
C1741      C1742   1.413       .  A
C1742      N1746   1.428       .  S
C1743      C1748   1.408       .  A
C1743      C1752   1.401       .  A
N1744      O1759   1.262       .  A
N1744      O1760   1.261       .  A
N1746      O1757   1.262       .  A
N1746      O1758   1.261       .  A
C1748      C1749   1.396       .  A
C1748      N1753   1.428       .  S
C1749      C1750   1.403       .  A
C1749      H1754   1.084       .  S
C1750      C1751   1.413       .  A
C1751      C1752   1.397       .  A
C1751      N1755   1.429       .  S
C1752      H1756   1.084       .  S
N1753      O1763   1.262       .  A
N1753      O1764   1.262       .  A
N1755      O1761   1.261       .  A
N1755      O1762   1.261       .  A
C1765      C1766   1.402       .  A
C1765      C1770   1.402       .  A
C1765      H1775   1.084       .  S
C1766      C1771   1.487       .  S
C1766      C1767   1.410       .  A
C1767      C1768   1.403       .  A
C1767      N1772   1.427       .  S
C1768      C1769   1.404       .  A
C1768      H1773   1.084       .  S
C1769      C1770   1.415       .  A
C1770      N1774   1.429       .  S
C1771      C1776   1.408       .  A
C1771      C1780   1.402       .  A
N1772      O1787   1.262       .  A
N1772      O1788   1.262       .  A
N1774      O1785   1.262       .  A
N1774      O1786   1.262       .  A
C1776      C1777   1.400       .  A
C1776      N1781   1.429       .  S
C1777      C1778   1.406       .  A
C1777      H1782   1.084       .  S
C1778      C1779   1.418       .  A
C1779      C1780   1.408       .  A
C1779      N1783   1.428       .  S
C1780      H1784   1.084       .  S
N1781      O1791   1.262       .  A
N1781      O1792   1.262       .  A
N1783      O1789   1.262       .  A
N1783      O1790   1.262       .  A
C1793      C1794   1.401       .  A
C1793      C1798   1.399       .  A
C1793      H1803   1.084       .  S
C1794      C1799   1.473       .  S
C1794      C1795   1.407       .  A
C1795      C1796   1.392       .  A
C1795      N1800   1.429       .  S
C1796      C1797   1.403       .  A
C1796      H1801   1.084       .  S
C1797      C1798   1.414       .  A
C1798      N1802   1.429       .  S
C1799      C1804   1.407       .  A
C1799      C1808   1.402       .  A
N1800      O1815   1.262       .  A
N1800      O1816   1.262       .  A
N1802      O1813   1.262       .  A
N1802      O1814   1.262       .  A
C1804      C1805   1.393       .  A
C1804      N1809   1.428       .  S
C1805      C1806   1.403       .  A
C1805      H1810   1.084       .  S
C1806      C1807   1.413       .  A
C1807      C1808   1.397       .  A
C1807      N1811   1.429       .  S
C1808      H1812   1.084       .  S
N1809      O1819   1.262       .  A
N1809      O1820   1.262       .  A
N1811      O1817   1.262       .  A
N1811      O1818   1.262       .  A
C1821      C1822   1.402   1_455  A
C1821      C1826   1.398       .  A
C1821      H1831   1.084       .  S
C1822      C1827   1.483       .  S
C1822      C1823   1.411       .  A
C1823      C1824   1.402       .  A
C1823      N1828   1.429       .  S
C1824      C1825   1.406       .  A
C1824      H1829   1.084       .  S
C1825      C1826   1.414   1_655  A
C1826      N1830   1.428       .  S
C1827      C1832   1.411       .  A
C1827      C1836   1.404   1_655  A
N1828      O1843   1.262       .  A
N1828      O1844   1.262       .  A
N1830      O1841   1.262       .  A
N1830      O1842   1.262       .  A
C1832      C1833   1.400       .  A
C1832      N1837   1.429       .  S
C1833      C1834   1.403       .  A
C1833      H1838   1.084       .  S
C1834      C1835   1.410   1_655  A
C1835      C1836   1.399       .  A
C1835      N1839   1.429       .  S
C1836      H1840   1.084       .  S
N1837      O1847   1.262       .  A
N1837      O1848   1.262       .  A
N1839      O1845   1.262       .  A
N1839      O1846   1.262       .  A
C1849      C1850   1.403       .  A
C1849      C1854   1.408       .  A
C1849      H1859   1.084       .  S
C1850      C1855   1.475       .  S
C1850      C1851   1.403   1_545  A
C1851      C1852   1.391       .  A
C1851      N1856   1.429       .  S
C1852      C1853   1.406   1_565  A
C1852      H1857   1.084       .  S
C1853      C1854   1.416       .  A
C1854      N1858   1.428       .  S
C1855      C1860   1.398       .  A
C1855      C1864   1.393       .  A
N1856      O1871   1.262       .  A
N1856      O1872   1.262       .  A
N1858      O1869   1.262       .  A
N1858      O1870   1.262       .  A
C1860      C1861   1.396       .  A
C1860      N1865   1.428       .  S
C1861      C1862   1.422   1_545  A
C1861      H1866   1.080       .  S
C1862      C1863   1.434   1_565  A
C1863      C1864   1.404       .  A
C1863      N1867   1.427       .  S
C1864      H1868   1.084       .  S
N1865      O1875   1.262       .  A
N1865      O1876   1.262   1_545  A
N1867      O1873   1.261       .  A
N1867      O1874   1.262   1_545  A
C1877      C1878   1.401       .  A
C1877      C1882   1.420       .  A
C1877      H1887   1.083       .  S
C1878      C1883   1.508       .  S
C1878      C1879   1.409       .  A
C1879      C1880   1.402       .  A
C1879      N1884   1.431       .  S
C1880      C1881   1.421       .  A
C1880      H1885   1.075       .  S
C1881      C1882   1.438       .  A
C1882      N1886   1.428       .  S
C1883      C1888   1.415       .  A
C1883      C1892   1.394       .  A
N1884      O1899   1.262       .  A
N1884      O1900   1.262       .  A
N1886      O1897   1.262       .  A
N1886      O1898   1.262       .  A
C1888      C1889   1.418       .  A
C1888      N1893   1.427       .  S
C1889      C1890   1.418       .  A
C1889      H1894   1.080   1_565  S
C1890      C1891   1.437       .  A
C1891      C1892   1.398       .  A
C1891      N1895   1.432       .  S
C1892      H1896   1.084       .  S
N1893      O1903   1.262   1_565  A
N1893      O1904   1.262       .  A
N1895      O1901   1.262       .  A
N1895      O1902   1.262       .  A
C1905      C1906   1.401       .  A
C1905      C1910   1.401       .  A
C1905      H1915   1.084       .  S
C1906      C1911   1.490       .  S
C1906      C1907   1.411       .  A
C1907      C1908   1.406       .  A
C1907      N1912   1.427       .  S
C1908      C1909   1.406       .  A
C1908      H1913   1.084       .  S
C1909      C1910   1.418       .  A
C1910      N1914   1.429       .  S
C1911      C1916   1.400       .  A
C1911      C1920   1.402       .  A
N1912      O1927   1.262       .  A
N1912      O1928   1.262       .  A
N1914      O1925   1.262       .  A
N1914      O1926   1.262       .  A
C1916      C1917   1.393       .  A
C1916      N1921   1.429       .  S
C1917      C1918   1.416       .  A
C1917      H1922   1.079       .  S
C1918      C1919   1.438       .  A
C1919      C1920   1.414       .  A
C1919      N1923   1.430       .  S
C1920      H1924   1.085       .  S
N1921      O1931   1.262       .  A
N1921      O1932   1.262       .  A
N1923      O1929   1.262       .  A
N1923      O1930   1.262       .  A
C1933      C1934   1.401       .  A
C1933      C1938   1.411       .  A
C1933      H1943   1.083       .  S
C1934      C1939   1.514       .  S
C1934      C1935   1.411       .  A
C1935      C1936   1.409       .  A
C1935      N1940   1.428       .  S
C1936      C1937   1.421       .  A
C1936      H1941   1.083       .  S
C1937      C1938   1.442       .  A
C1938      N1942   1.433   1_545  S
C1939      C1944   1.410       .  A
C1939      C1948   1.409       .  A
N1940      O1955   1.262       .  A
N1940      O1956   1.262       .  A
N1942      O1953   1.261       .  A
N1942      O1954   1.262       .  A
C1944      C1945   1.395       .  A
C1944      N1949   1.431       .  S
C1945      C1946   1.414       .  A
C1945      H1950   1.077       .  S
C1946      C1947   1.438       .  A
C1947      C1948   1.423       .  A
C1947      N1951   1.433       .  S
C1948      H1952   1.082       .  S
N1949      O1959   1.262       .  A
N1949      O1960   1.262       .  A
N1951      O1957   1.261       .  A
N1951      O1958   1.261       .  A
C1961      C1962   1.409       .  A
C1961      C1966   1.415       .  A
C1961      H1971   1.083       .  S
C1962      C1967   1.523       .  S
C1962      C1963   1.411       .  A
C1963      C1964   1.408       .  A
C1963      N1968   1.430       .  S
C1964      C1965   1.428       .  A
C1964      H1969   1.078       .  S
C1965      C1966   1.430       .  A
C1966      N1970   1.427       .  S
C1967      C1972   1.418       .  A
C1967      C1976   1.404       .  A
N1968      O1983   1.262       .  A
N1968      O1984   1.262       .  A
N1970      O1981   1.262       .  A
N1970      O1982   1.261       .  A
C1972      C1973   1.415       .  A
C1972      N1977   1.428       .  S
C1973      C1974   1.416       .  A
C1973      H1978   1.077       .  S
C1974      C1975   1.435       .  A
C1975      C1976   1.406       .  A
C1975      N1979   1.433       .  S
C1976      H1980   1.083       .  S
N1977      O1987   1.262       .  A
N1977      O1988   1.262       .  A
N1979      O1985   1.261       .  A
N1979      O1986   1.263       .  A
C1989      C1990   1.394       .  A
C1989      C1994   1.403       .  A
C1989      H1999   1.084       .  S
C1990      C1995   1.488       .  S
C1990      C1991   1.402       .  A
C1991      C1992   1.411       .  A
C1991      N1996   1.429       .  S
C1992      C1993   1.424       .  A
C1992      H1997   1.080       .  S
C1993      C1994   1.435       .  A
C1994      N1998   1.430       .  S
C1995      C2000   1.407       .  A
C1995      C2004   1.395       .  A
N1996      O2011   1.262       .  A
N1996      O2012   1.262       .  A
N1998      O2009   1.262       .  A
N1998      O2010   1.262       .  A
C2000      C2001   1.398       .  A
C2000      N2005   1.427       .  S
C2001      C2002   1.407       .  A
C2001      H2006   1.121       .  S
C2002      C2003   1.441       .  A
C2003      C2004   1.407       .  A
C2003      N2007   1.431       .  S
C2004      H2008   1.089       .  S
N2005      O2015   1.262       .  A
N2005      O2016   1.262       .  A
N2007      O2013   1.262       .  A
N2007      O2014   1.262       .  A
C2017      C2018   1.394   1_455  A
C2017      C2022   1.400       .  A
C2017      H2027   1.084       .  S
C2018      C2023   1.483       .  S
C2018      C2019   1.402       .  A
C2019      C2020   1.398       .  A
C2019      N2024   1.427       .  S
C2020      C2021   1.421       .  A
C2020      H2025   1.080       .  S
C2021      C2022   1.434   1_655  A
C2022      N2026   1.427       .  S
C2023      C2028   1.409       .  A
C2023      C2032   1.402       .  A
N2024      O2039   1.262       .  A
N2024      O2040   1.261       .  A
N2026      O2037   1.263       .  A
N2026      O2038   1.262       .  A
C2028      C2029   1.396       .  A
C2028      N2033   1.430       .  S
C2029      C2030   1.405       .  A
C2029      H2034   1.084       .  S
C2030      C2031   1.416       .  A
C2031      C2032   1.404       .  A
C2031      N2035   1.428       .  S
C2032      H2036   1.083       .  S
N2033      O2043   1.262       .  A
N2033      O2044   1.262       .  A
N2035      O2041   1.262       .  A
N2035      O2042   1.262       .  A
C2045      C2046   1.395       .  A
C2045      C2050   1.410       .  A
C2045      H2055   1.084       .  S
C2046      C2051   1.507       .  S
C2046      C2047   1.407       .  A
C2047      C2048   1.409       .  A
C2047      N2052   1.428       .  S
C2048      C2049   1.422       .  A
C2048      H2053   1.083   1_455  S
C2049      C2050   1.452       .  A
C2050      N2054   1.433       .  S
C2051      C2056   1.410       .  A
C2051      C2060   1.399       .  A
N2052      O2067   1.262       .  A
N2052      O2068   1.262       .  A
N2054      O2065   1.262       .  A
N2054      O2066   1.261       .  A
C2056      C2057   1.405       .  A
C2056      N2061   1.429       .  S
C2057      C2058   1.417       .  A
C2057      H2062   1.082       .  S
C2058      C2059   1.445       .  A
C2059      C2060   1.414       .  A
C2059      N2063   1.433       .  S
C2060      H2064   1.084       .  S
N2061      O2071   1.262       .  A
N2061      O2072   1.262       .  A
N2063      O2069   1.261       .  A
N2063      O2070   1.262       .  A
C2073      C2074   1.416       .  A
C2073      C2078   1.417   1_455  A
C2073      H2083   1.078       .  S
C2074      C2079   1.525       .  S
C2074      C2075   1.414   1_455  A
C2075      C2076   1.405       .  A
C2075      N2080   1.430       .  S
C2076      C2077   1.416       .  A
C2076      H2081   1.079       .  S
C2077      C2078   1.422       .  A
C2078      N2082   1.432       .  S
C2079      C2084   1.411       .  A
C2079      C2088   1.412       .  A
N2080      O2095   1.262   1_655  A
N2080      O2096   1.262       .  A
N2082      O2093   1.262       .  A
N2082      O2094   1.261   1_655  A
C2084      C2085   1.405       .  A
C2084      N2089   1.430   1_455  S
C2085      C2086   1.426       .  A
C2085      H2090   1.074       .  S
C2086      C2087   1.429       .  A
C2087      C2088   1.418       .  A
C2087      N2091   1.430       .  S
C2088      H2092   1.081       .  S
N2089      O2099   1.263   1_655  A
N2089      O2100   1.262       .  A
N2091      O2097   1.262       .  A
N2091      O2098   1.262       .  A
C2101      C2102   1.404       .  A
C2101      C2106   1.422       .  A
C2101      H2111   1.083       .  S
C2102      C2107   1.508       .  S
C2102      C2103   1.403       .  A
C2103      C2104   1.399       .  A
C2103      N2108   1.430       .  S
C2104      C2105   1.427       .  A
C2104      H2109   1.077       .  S
C2105      C2106   1.437       .  A
C2106      N2110   1.426       .  S
C2107      C2112   1.411       .  A
C2107      C2116   1.394       .  A
N2108      O2123   1.262       .  A
N2108      O2124   1.262       .  A
N2110      O2121   1.262       .  A
N2110      O2122   1.262       .  A
C2112      C2113   1.422       .  A
C2112      N2117   1.428       .  S
C2113      C2114   1.423       .  A
C2113      H2118   1.080       .  S
C2114      C2115   1.438       .  A
C2115      C2116   1.402       .  A
C2115      N2119   1.432       .  S
C2116      H2120   1.084       .  S
N2117      O2127   1.262       .  A
N2117      O2128   1.262       .  A
N2119      O2125   1.262       .  A
N2119      O2126   1.262       .  A
C2129      C2130   1.400       .  A
C2129      C2134   1.408       .  A
C2129      H2139   1.084       .  S
C2130      C2135   1.503       .  S
C2130      C2131   1.409       .  A
C2131      C2132   1.413       .  A
C2131      N2136   1.429       .  S
C2132      C2133   1.420       .  A
C2132      H2137   1.083       .  S
C2133      C2134   1.439       .  A
C2134      N2138   1.435       .  S
C2135      C2140   1.407       .  A
C2135      C2144   1.391       .  A
N2136      O2151   1.261       .  A
N2136      O2152   1.262       .  A
N2138      O2149   1.262       .  A
N2138      O2150   1.261       .  A
C2140      C2141   1.417       .  A
C2140      N2145   1.427       .  S
C2141      C2142   1.425       .  A
C2141      H2146   1.072       .  S
C2142      C2143   1.446       .  A
C2143      C2144   1.404       .  A
C2143      N2147   1.429       .  S
C2144      H2148   1.085       .  S
N2145      O2155   1.262       .  A
N2145      O2156   1.261       .  A
N2147      O2153   1.262       .  A
N2147      O2154   1.263       .  A
C2157      C2158   1.390       .  A
C2157      C2162   1.400       .  A
C2157      H2167   1.084       .  S
C2158      C2163   1.477       .  S
C2158      C2159   1.402       .  A
C2159      C2160   1.400       .  A
C2159      N2164   1.428   1_655  S
C2160      C2161   1.417       .  A
C2160      H2165   1.073   1_655  S
C2161      C2162   1.444       .  A
C2162      N2166   1.434       .  S
C2163      C2168   1.408       .  A
C2163      C2172   1.400       .  A
N2164      O2179   1.262       .  A
N2164      O2180   1.262       .  A
N2166      O2177   1.263       .  A
N2166      O2178   1.261       .  A
C2168      C2169   1.398       .  A
C2168      N2173   1.429   1_655  S
C2169      C2170   1.405       .  A
C2169      H2174   1.084   1_655  S
C2170      C2171   1.415       .  A
C2171      C2172   1.402       .  A
C2171      N2175   1.428       .  S
C2172      H2176   1.084       .  S
N2173      O2183   1.262       .  A
N2173      O2184   1.262       .  A
N2175      O2181   1.262       .  A
N2175      O2182   1.262       .  A
C2185      C2186   1.403       .  A
C2185      C2190   1.411       .  A
C2185      H2195   1.082       .  S
C2186      C2191   1.508       .  S
C2186      C2187   1.411       .  A
C2187      C2188   1.401       .  A
C2187      N2192   1.431       .  S
C2188      C2189   1.423       .  A
C2188      H2193   1.079       .  S
C2189      C2190   1.431       .  A
C2190      N2194   1.428   1_455  S
C2191      C2196   1.411       .  A
C2191      C2200   1.403       .  A
N2192      O2207   1.262       .  A
N2192      O2208   1.262       .  A
N2194      O2205   1.263       .  A
N2194      O2206   1.261       .  A
C2196      C2197   1.402       .  A
C2196      N2201   1.429       .  S
C2197      C2198   1.415       .  A
C2197      H2202   1.075       .  S
C2198      C2199   1.434       .  A
C2199      C2200   1.407       .  A
C2199      N2203   1.433       .  S
C2200      H2204   1.081       .  S
N2201      O2211   1.262       .  A
N2201      O2212   1.262       .  A
N2203      O2209   1.261       .  A
N2203      O2210   1.262       .  A
C2213      C2214   1.389   1_455  A
C2213      C2218   1.396       .  A
C2213      H2223   1.085       .  S
C2214      C2219   1.493   1_655  S
C2214      C2215   1.415       .  A
C2215      C2216   1.415       .  A
C2215      N2220   1.427       .  S
C2216      C2217   1.415       .  A
C2216      H2221   1.079       .  S
C2217      C2218   1.445   1_655  A
C2218      N2222   1.433       .  S
C2219      C2224   1.413       .  A
C2219      C2228   1.388       .  A
N2220      O2235   1.262       .  A
N2220      O2236   1.262       .  A
N2222      O2233   1.262       .  A
N2222      O2234   1.262       .  A
C2224      C2225   1.413       .  A
C2224      N2229   1.428   1_455  S
C2225      C2226   1.415       .  A
C2225      H2230   1.077       .  S
C2226      C2227   1.442       .  A
C2227      C2228   1.399       .  A
C2227      N2231   1.429       .  S
C2228      H2232   1.085       .  S
N2229      O2239   1.262   1_655  A
N2229      O2240   1.262       .  A
N2231      O2237   1.263       .  A
N2231      O2238   1.261       .  A
C2241      C2242   1.396       .  A
C2241      C2246   1.417       .  A
C2241      H2251   1.084       .  S
C2242      C2247   1.517       .  S
C2242      C2243   1.407       .  A
C2243      C2244   1.416       .  A
C2243      N2248   1.430       .  S
C2244      C2245   1.427       .  A
C2244      H2249   1.081       .  S
C2245      C2246   1.450       .  A
C2246      N2250   1.428       .  S
C2247      C2252   1.410       .  A
C2247      C2256   1.393       .  A
N2248      O2263   1.263       .  A
N2248      O2264   1.261       .  A
N2250      O2261   1.262       .  A
N2250      O2262   1.263       .  A
C2252      C2253   1.424       .  A
C2252      N2257   1.427       .  S
C2253      C2254   1.424       .  A
C2253      H2258   1.083       .  S
C2254      C2255   1.452       .  A
C2255      C2256   1.407       .  A
C2255      N2259   1.434       .  S
C2256      H2260   1.084       .  S
N2257      O2267   1.262       .  A
N2257      O2268   1.262       .  A
N2259      O2265   1.262       .  A
N2259      O2266   1.260       .  A
C2269      C2270   1.398       .  A
C2269      C2274   1.407       .  A
C2269      H2279   1.084       .  S
C2270      C2275   1.486       .  S
C2270      C2271   1.406   1_545  A
C2271      C2272   1.399       .  A
C2271      N2276   1.429       .  S
C2272      C2273   1.414   1_565  A
C2272      H2277   1.076       .  S
C2273      C2274   1.433       .  A
C2274      N2278   1.431       .  S
C2275      C2280   1.410       .  A
C2275      C2284   1.402       .  A
N2276      O2291   1.262       .  A
N2276      O2292   1.262       .  A
N2278      O2289   1.261       .  A
N2278      O2290   1.262       .  A
C2280      C2281   1.398       .  A
C2280      N2285   1.427       .  S
C2281      C2282   1.404       .  A
C2281      H2286   1.084       .  S
C2282      C2283   1.415       .  A
C2283      C2284   1.404       .  A
C2283      N2287   1.428       .  S
C2284      H2288   1.084       .  S
N2285      O2295   1.262       .  A
N2285      O2296   1.262   1_545  A
N2287      O2293   1.262       .  A
N2287      O2294   1.262   1_545  A
C2297      C2298   1.400       .  A
C2297      C2302   1.416       .  A
C2297      H2307   1.084       .  S
C2298      C2303   1.530       .  S
C2298      C2299   1.415       .  A
C2299      C2300   1.429       .  A
C2299      N2304   1.428       .  S
C2300      C2301   1.424       .  A
C2300      H2305   1.079       .  S
C2301      C2302   1.442       .  A
C2302      N2306   1.432       .  S
C2303      C2308   1.415       .  A
C2303      C2312   1.402       .  A
N2304      O2319   1.262       .  A
N2304      O2320   1.261       .  A
N2306      O2317   1.261   1_545  A
N2306      O2318   1.263       .  A
C2308      C2309   1.427       .  A
C2308      N2313   1.428       .  S
C2309      C2310   1.423       .  A
C2309      H2314   1.080       .  S
C2310      C2311   1.438       .  A
C2311      C2312   1.418       .  A
C2311      N2315   1.429       .  S
C2312      H2316   1.084       .  S
N2313      O2323   1.262       .  A
N2313      O2324   1.261       .  A
N2315      O2321   1.262       .  A
N2315      O2322   1.262       .  A
C2325      C2326   1.396       .  A
C2325      C2330   1.408       .  A
C2325      H2335   1.078       .  S
C2326      C2331   1.538       .  S
C2326      C2327   1.427       .  A
C2327      C2328   1.420       .  A
C2327      N2332   1.428       .  S
C2328      C2329   1.416       .  A
C2328      H2333   1.083       .  S
C2329      C2330   1.450       .  A
C2330      N2334   1.428       .  S
C2331      C2336   1.429       .  A
C2331      C2340   1.401       .  A
N2332      O2347   1.262       .  A
N2332      O2348   1.262       .  A
N2334      O2345   1.262   1_565  A
N2334      O2346   1.260       .  A
C2336      C2337   1.419       .  A
C2336      N2341   1.430       .  S
C2337      C2338   1.415       .  A
C2337      H2342   1.076       .  S
C2338      C2339   1.440       .  A
C2339      C2340   1.410       .  A
C2339      N2343   1.429       .  S
C2340      H2344   1.079       .  S
N2341      O2351   1.262       .  A
N2341      O2352   1.262       .  A
N2343      O2349   1.262       .  A
N2343      O2350   1.261       .  A
C2353      C2354   1.393       .  A
C2353      C2358   1.412       .  A
C2353      H2363   1.084       .  S
C2354      C2359   1.494       .  S
C2354      C2355   1.399       .  A
C2355      C2356   1.406       .  A
C2355      N2360   1.431       .  S
C2356      C2357   1.427       .  A
C2356      H2361   1.076       .  S
C2357      C2358   1.444       .  A
C2358      N2362   1.429       .  S
C2359      C2364   1.401       .  A
C2359      C2368   1.390       .  A
N2360      O2375   1.262       .  A
N2360      O2376   1.262       .  A
N2362      O2373   1.261       .  A
N2362      O2374   1.263       .  A
C2364      C2365   1.412       .  A
C2364      N2369   1.427       .  S
C2365      C2366   1.421       .  A
C2365      H2370   1.076       .  S
C2366      C2367   1.450       .  A
C2367      C2368   1.403       .  A
C2367      N2371   1.434       .  S
C2368      H2372   1.085       .  S
N2369      O2379   1.261       .  A
N2369      O2380   1.262       .  A
N2371      O2377   1.262       .  A
N2371      O2378   1.262       .  A
C2381      C2382   1.409       .  A
C2381      C2386   1.413       .  A
C2381      H2391   1.077       .  S
C2382      C2387   1.536       .  S
C2382      C2383   1.427       .  A
C2383      C2384   1.403       .  A
C2383      N2388   1.430       .  S
C2384      C2385   1.417       .  A
C2384      H2389   1.078       .  S
C2385      C2386   1.431       .  A
C2386      N2390   1.428       .  S
C2387      C2392   1.426       .  A
C2387      C2396   1.403       .  A
N2388      O2403   1.263       .  A
N2388      O2404   1.261       .  A
N2390      O2401   1.262       .  A
N2390      O2402   1.262       .  A
C2392      C2393   1.412       .  A
C2392      N2397   1.427       .  S
C2393      C2394   1.417       .  A
C2393      H2398   1.084       .  S
C2394      C2395   1.437       .  A
C2395      C2396   1.405       .  A
C2395      N2399   1.428       .  S
C2396      H2400   1.076       .  S
N2397      O2407   1.263       .  A
N2397      O2408   1.262       .  A
N2399      O2405   1.262       .  A
N2399      O2406   1.261       .  A
C2409      C2410   1.391       .  A
C2409      C2414   1.401       .  A
C2409      H2419   1.085       .  S
C2410      C2415   1.482       .  S
C2410      C2411   1.402       .  A
C2411      C2412   1.403       .  A
C2411      N2416   1.427       .  S
C2412      C2413   1.421       .  A
C2412      H2417   1.078       .  S
C2413      C2414   1.438       .  A
C2414      N2418   1.428       .  S
C2415      C2420   1.408       .  A
C2415      C2424   1.400       .  A
N2416      O2431   1.262       .  A
N2416      O2432   1.262       .  A
N2418      O2429   1.262       .  A
N2418      O2430   1.262       .  A
C2420      C2421   1.404       .  A
C2420      N2425   1.427       .  S
C2421      C2422   1.406       .  A
C2421      H2426   1.084       .  S
C2422      C2423   1.417       .  A
C2423      C2424   1.401       .  A
C2423      N2427   1.429       .  S
C2424      H2428   1.084       .  S
N2425      O2435   1.262       .  A
N2425      O2436   1.262       .  A
N2427      O2433   1.262       .  A
N2427      O2434   1.262       .  A
C2437      C2438   1.407       .  A
C2437      C2442   1.427       .  A
C2437      H2447   1.083       .  S
C2438      C2443   1.518       .  S
C2438      C2439   1.404       .  A
C2439      C2440   1.406       .  A
C2439      N2444   1.429       .  S
C2440      C2441   1.421       .  A
C2440      H2445   1.083       .  S
C2441      C2442   1.443       .  A
C2442      N2446   1.433       .  S
C2443      C2448   1.408       .  A
C2443      C2452   1.398       .  A
N2444      O2459   1.262       .  A
N2444      O2460   1.261       .  A
N2446      O2457   1.262       .  A
N2446      O2458   1.261       .  A
C2448      C2449   1.422       .  A
C2448      N2453   1.428       .  S
C2449      C2450   1.426       .  A
C2449      H2454   1.083       .  S
C2450      C2451   1.447       .  A
C2451      C2452   1.413       .  A
C2451      N2455   1.433       .  S
C2452      H2456   1.084       .  S
N2453      O2463   1.262       .  A
N2453      O2464   1.261       .  A
N2455      O2461   1.262       .  A
N2455      O2462   1.261       .  A
C2465      C2466   1.411       .  A
C2465      C2470   1.422       .  A
C2465      H2475   1.077       .  S
C2466      C2471   1.538       .  S
C2466      C2467   1.421       .  A
C2467      C2468   1.400       .  A
C2467      N2472   1.432       .  S
C2468      C2469   1.420       .  A
C2468      H2473   1.080       .  S
C2469      C2470   1.439       .  A
C2470      N2474   1.429       .  S
C2471      C2476   1.426       .  A
C2471      C2480   1.402       .  A
N2472      O2487   1.263       .  A
N2472      O2488   1.262       .  A
N2474      O2485   1.261       .  A
N2474      O2486   1.263       .  A
C2476      C2477   1.419       .  A
C2476      N2481   1.428       .  S
C2477      C2478   1.421       .  A
C2477      H2482   1.081       .  S
C2478      C2479   1.433       .  A
C2479      C2480   1.403       .  A
C2479      N2483   1.428       .  S
C2480      H2484   1.076       .  S
N2481      O2491   1.262       .  A
N2481      O2492   1.262       .  A
N2483      O2489   1.262       .  A
N2483      O2490   1.263       .  A
C2493      C2494   1.411       .  A
C2493      C2498   1.418       .  A
C2493      H2503   1.078       .  S
C2494      C2499   1.534       .  S
C2494      C2495   1.412       .  A
C2495      C2496   1.409       .  A
C2495      N2500   1.430       .  S
C2496      C2497   1.429       .  A
C2496      H2501   1.075       .  S
C2497      C2498   1.436       .  A
C2498      N2502   1.437       .  S
C2499      C2504   1.415       .  A
C2499      C2508   1.419       .  A
N2500      O2515   1.262       .  A
N2500      O2516   1.262       .  A
N2502      O2513   1.263       .  A
N2502      O2514   1.258       .  A
C2504      C2505   1.399       .  A
C2504      N2509   1.430       .  S
C2505      C2506   1.419       .  A
C2505      H2510   1.080       .  S
C2506      C2507   1.429       .  A
C2507      C2508   1.425       .  A
C2507      N2511   1.434       .  S
C2508      H2512   1.079       .  S
N2509      O2519   1.262       .  A
N2509      O2520   1.263       .  A
N2511      O2517   1.261       .  A
N2511      O2518   1.262       .  A
C2521      C2522   1.400       .  A
C2521      C2526   1.400       .  A
C2521      H2531   1.084       .  S
C2522      C2527   1.475   1_556  S
C2522      C2523   1.406       .  A
C2523      C2524   1.399       .  A
C2523      N2528   1.428       .  S
C2524      C2525   1.405       .  A
C2524      H2529   1.084       .  S
C2525      C2526   1.415       .  A
C2526      N2530   1.429       .  S
C2527      C2532   1.405       .  A
C2527      C2536   1.401       .  A
N2528      O2543   1.262       .  A
N2528      O2544   1.262       .  A
N2530      O2541   1.262       .  A
N2530      O2542   1.262       .  A
C2532      C2533   1.392       .  A
C2532      N2537   1.430       .  S
C2533      C2534   1.406       .  A
C2533      H2538   1.084       .  S
C2534      C2535   1.416       .  A
C2535      C2536   1.407       .  A
C2535      N2539   1.427       .  S
C2536      H2540   1.084       .  S
N2537      O2547   1.262       .  A
N2537      O2548   1.262       .  A
N2539      O2545   1.262       .  A
N2539      O2546   1.262       .  A
C2549      C2550   1.404       .  A
C2549      C2554   1.403       .  A
C2549      H2559   1.082       .  S
C2550      C2555   1.499       .  S
C2550      C2551   1.417       .  A
C2551      C2552   1.405       .  A
C2551      N2556   1.430       .  S
C2552      C2553   1.404       .  A
C2552      H2557   1.084       .  S
C2553      C2554   1.414       .  A
C2554      N2558   1.428       .  S
C2555      C2560   1.409       .  A
C2555      C2564   1.399       .  A
N2556      O2571   1.262       .  A
N2556      O2572   1.262       .  A
N2558      O2569   1.262       .  A
N2558      O2570   1.261       .  A
C2560      C2561   1.402       .  A
C2560      N2565   1.429       .  S
C2561      C2562   1.420       .  A
C2561      H2566   1.083       .  S
C2562      C2563   1.440       .  A
C2563      C2564   1.406       .  A
C2563      N2567   1.432       .  S
C2564      H2568   1.083       .  S
N2565      O2575   1.262       .  A
N2565      O2576   1.262       .  A
N2567      O2573   1.261       .  A
N2567      O2574   1.262       .  A
C2577      C2578   1.406   1_556  A
C2577      C2582   1.406       .  A
C2577      H2587   1.084       .  S
C2578      C2583   1.488       .  S
C2578      C2579   1.411   1_564  A
C2579      C2580   1.400       .  A
C2579      N2584   1.428       .  S
C2580      C2581   1.404   1_545  A
C2580      H2585   1.084       .  S
C2581      C2582   1.414       .  A
C2582      N2586   1.428       .  S
C2583      C2588   1.413   1_565  A
C2583      C2592   1.405       .  A
N2584      O2599   1.262   1_556  A
N2584      O2600   1.262       .  A
N2586      O2597   1.262       .  A
N2586      O2598   1.262       .  A
C2588      C2589   1.402       .  A
C2588      N2593   1.428       .  S
C2589      C2590   1.402   1_545  A
C2589      H2594   1.084       .  S
C2590      C2591   1.410       .  A
C2591      C2592   1.401       .  A
C2591      N2595   1.429       .  S
C2592      H2596   1.084       .  S
N2593      O2603   1.262       .  A
N2593      O2604   1.262       .  A
N2595      O2601   1.262       .  A
N2595      O2602   1.262       .  A
C2605      C2606   1.400       .  A
C2605      C2610   1.399       .  A
C2605      H2615   1.084       .  S
C2606      C2611   1.471       .  S
C2606      C2607   1.406       .  A
C2607      C2608   1.394       .  A
C2607      N2612   1.429       .  S
C2608      C2609   1.405       .  A
C2608      H2613   1.084       .  S
C2609      C2610   1.414       .  A
C2610      N2614   1.428       .  S
C2611      C2616   1.407       .  A
C2611      C2620   1.402       .  A
N2612      O2627   1.262       .  A
N2612      O2628   1.262       .  A
N2614      O2625   1.262       .  A
N2614      O2626   1.262       .  A
C2616      C2617   1.392       .  A
C2616      N2621   1.429       .  S
C2617      C2618   1.401       .  A
C2617      H2622   1.083       .  S
C2618      C2619   1.410       .  A
C2619      C2620   1.400       .  A
C2619      N2623   1.429       .  S
C2620      H2624   1.084       .  S
N2621      O2631   1.262       .  A
N2621      O2632   1.262       .  A
N2623      O2629   1.262       .  A
N2623      O2630   1.262       .  A
C2633      C2634   1.396       .  A
C2633      C2638   1.401       .  A
C2633      H2643   1.084       .  S
C2634      C2639   1.481       .  S
C2634      C2635   1.402       .  A
C2635      C2636   1.397       .  A
C2635      N2640   1.429       .  S
C2636      C2637   1.420       .  A
C2636      H2641   1.080       .  S
C2637      C2638   1.437       .  A
C2638      N2642   1.431       .  S
C2639      C2644   1.408       .  A
C2639      C2648   1.405       .  A
N2640      O2655   1.262       .  A
N2640      O2656   1.261       .  A
N2642      O2653   1.263       .  A
N2642      O2654   1.262       .  A
C2644      C2645   1.396       .  A
C2644      N2649   1.429       .  S
C2645      C2646   1.405       .  A
C2645      H2650   1.084       .  S
C2646      C2647   1.414       .  A
C2647      C2648   1.404       .  A
C2647      N2651   1.428   1_565  S
C2648      H2652   1.084       .  S
N2649      O2659   1.262       .  A
N2649      O2660   1.262       .  A
N2651      O2657   1.262       .  A
N2651      O2658   1.262       .  A
C2661      C2662   1.401   1_566  A
C2661      C2666   1.395       .  A
C2661      H2671   1.084   1_556  S
C2662      C2667   1.484       .  S
C2662      C2663   1.412   1_554  A
C2663      C2664   1.404       .  A
C2663      N2668   1.429       .  S
C2664      C2665   1.405   1_545  A
C2664      H2669   1.084       .  S
C2665      C2666   1.413       .  A
C2666      N2670   1.429       .  S
C2667      C2672   1.411       .  A
C2667      C2676   1.407       .  A
N2668      O2683   1.262       .  A
N2668      O2684   1.262       .  A
N2670      O2681   1.262       .  A
N2670      O2682   1.262       .  A
C2672      C2673   1.395       .  A
C2672      N2677   1.429       .  S
C2673      C2674   1.404       .  A
C2673      H2678   1.084       .  S
C2674      C2675   1.411       .  A
C2675      C2676   1.406       .  A
C2675      N2679   1.428   1_545  S
C2676      H2680   1.084   1_545  S
N2677      O2687   1.262       .  A
N2677      O2688   1.262       .  A
N2679      O2685   1.262       .  A
N2679      O2686   1.262       .  A
C2689      C2690   1.401       .  A
C2689      C2694   1.401       .  A
C2689      H2699   1.084       .  S
C2690      C2695   1.484       .  S
C2690      C2691   1.411       .  A
C2691      C2692   1.399       .  A
C2691      N2696   1.429       .  S
C2692      C2693   1.403       .  A
C2692      H2697   1.084       .  S
C2693      C2694   1.418       .  A
C2694      N2698   1.429       .  S
C2695      C2700   1.403       .  A
C2695      C2704   1.397       .  A
N2696      O2711   1.262   1_565  A
N2696      O2712   1.261       .  A
N2698      O2709   1.262       .  A
N2698      O2710   1.262       .  A
C2700      C2701   1.397       .  A
C2700      N2705   1.429       .  S
C2701      C2702   1.420       .  A
C2701      H2706   1.084       .  S
C2702      C2703   1.439       .  A
C2703      C2704   1.403       .  A
C2703      N2707   1.431       .  S
C2704      H2708   1.084       .  S
N2705      O2715   1.262       .  A
N2705      O2716   1.262       .  A
N2707      O2713   1.261       .  A
N2707      O2714   1.262       .  A
C2717      C2718   1.400   1_556  A
C2717      C2722   1.396       .  A
C2717      H2727   1.084   1_556  S
C2718      C2723   1.469       .  S
C2718      C2719   1.405   1_554  A
C2719      C2720   1.395       .  A
C2719      N2724   1.428       .  S
C2720      C2721   1.404       .  A
C2720      H2725   1.084       .  S
C2721      C2722   1.415       .  A
C2722      N2726   1.430       .  S
C2723      C2728   1.408       .  A
C2723      C2732   1.400       .  A
N2724      O2739   1.261       .  A
N2724      O2740   1.261       .  A
N2726      O2737   1.262       .  A
N2726      O2738   1.262       .  A
C2728      C2729   1.393       .  A
C2728      N2733   1.430       .  S
C2729      C2730   1.404       .  A
C2729      H2734   1.084       .  S
C2730      C2731   1.413       .  A
C2731      C2732   1.399       .  A
C2731      N2735   1.428       .  S
C2732      H2736   1.084       .  S
N2733      O2743   1.262       .  A
N2733      O2744   1.262       .  A
N2735      O2741   1.262       .  A
N2735      O2742   1.262       .  A
C2745      C2746   1.401       .  A
C2745      C2750   1.400       .  A
C2745      H2755   1.084       .  S
C2746      C2751   1.476       .  S
C2746      C2747   1.406       .  A
C2747      C2748   1.397       .  A
C2747      N2752   1.428       .  S
C2748      C2749   1.405       .  A
C2748      H2753   1.084       .  S
C2749      C2750   1.415       .  A
C2750      N2754   1.429       .  S
C2751      C2756   1.406       .  A
C2751      C2760   1.401       .  A
N2752      O2767   1.262       .  A
N2752      O2768   1.262       .  A
N2754      O2765   1.262       .  A
N2754      O2766   1.262       .  A
C2756      C2757   1.396       .  A
C2756      N2761   1.428       .  S
C2757      C2758   1.405       .  A
C2757      H2762   1.084       .  S
C2758      C2759   1.417       .  A
C2759      C2760   1.403       .  A
C2759      N2763   1.429       .  S
C2760      H2764   1.084       .  S
N2761      O2771   1.262       .  A
N2761      O2772   1.262       .  A
N2763      O2769   1.262       .  A
N2763      O2770   1.262       .  A
C2773      C2774   1.403       .  A
C2773      C2778   1.407       .  A
C2773      H2783   1.084       .  S
C2774      C2779   1.480       .  S
C2774      C2775   1.404       .  A
C2775      C2776   1.393       .  A
C2775      N2780   1.428       .  S
C2776      C2777   1.405       .  A
C2776      H2781   1.084       .  S
C2777      C2778   1.417       .  A
C2778      N2782   1.429       .  S
C2779      C2784   1.401       .  A
C2779      C2788   1.390       .  A
N2780      O2795   1.262       .  A
N2780      O2796   1.262       .  A
N2782      O2793   1.262       .  A
N2782      O2794   1.262       .  A
C2784      C2785   1.406       .  A
C2784      N2789   1.430       .  S
C2785      C2786   1.424       .  A
C2785      H2790   1.071       .  S
C2786      C2787   1.435       .  A
C2787      C2788   1.399       .  A
C2787      N2791   1.429       .  S
C2788      H2792   1.084       .  S
N2789      O2799   1.262       .  A
N2789      O2800   1.262       .  A
N2791      O2797   1.262       .  A
N2791      O2798   1.262       .  A
C2801      C2802   1.402       .  A
C2801      C2806   1.396       .  A
C2801      H2811   1.083   1_556  S
C2802      C2807   1.492   1_556  S
C2802      C2803   1.414       .  A
C2803      C2804   1.406       .  A
C2803      N2808   1.428       .  S
C2804      C2805   1.405       .  A
C2804      H2809   1.084       .  S
C2805      C2806   1.414       .  A
C2806      N2810   1.429       .  S
C2807      C2812   1.414       .  A
C2807      C2816   1.404       .  A
N2808      O2823   1.262       .  A
N2808      O2824   1.262       .  A
N2810      O2821   1.262       .  A
N2810      O2822   1.262       .  A
C2812      C2813   1.400       .  A
C2812      N2817   1.430       .  S
C2813      C2814   1.405       .  A
C2813      H2818   1.084       .  S
C2814      C2815   1.415       .  A
C2815      C2816   1.406       .  A
C2815      N2819   1.428   1_655  S
C2816      H2820   1.083       .  S
N2817      O2827   1.262       .  A
N2817      O2828   1.261       .  A
N2819      O2825   1.262       .  A
N2819      O2826   1.262       .  A
C2829      C2830   1.400       .  A
C2829      C2834   1.399       .  A
C2829      H2839   1.084       .  S
C2830      C2835   1.471       .  S
C2830      C2831   1.406       .  A
C2831      C2832   1.394       .  A
C2831      N2836   1.429       .  S
C2832      C2833   1.404       .  A
C2832      H2837   1.084       .  S
C2833      C2834   1.414       .  A
C2834      N2838   1.429       .  S
C2835      C2840   1.406       .  A
C2835      C2844   1.402       .  A
N2836      O2851   1.262       .  A
N2836      O2852   1.261       .  A
N2838      O2849   1.262       .  A
N2838      O2850   1.262       .  A
C2840      C2841   1.390       .  A
C2840      N2845   1.430       .  S
C2841      C2842   1.403       .  A
C2841      H2846   1.084       .  S
C2842      C2843   1.415       .  A
C2843      C2844   1.404       .  A
C2843      N2847   1.429       .  S
C2844      H2848   1.084       .  S
N2845      O2855   1.262       .  A
N2845      O2856   1.261       .  A
N2847      O2853   1.262       .  A
N2847      O2854   1.262       .  A
C2857      C2858   1.402       .  A
C2857      C2862   1.398       .  A
C2857      H2867   1.084       .  S
C2858      C2863   1.483       .  S
C2858      C2859   1.410       .  A
C2859      C2860   1.399       .  A
C2859      N2864   1.428       .  S
C2860      C2861   1.404       .  A
C2860      H2865   1.084       .  S
C2861      C2862   1.414       .  A
C2862      N2866   1.429       .  S
C2863      C2868   1.409       .  A
C2863      C2872   1.404       .  A
N2864      O2879   1.262       .  A
N2864      O2880   1.262       .  A
N2866      O2877   1.262       .  A
N2866      O2878   1.262       .  A
C2868      C2869   1.393       .  A
C2868      N2873   1.430       .  S
C2869      C2870   1.404       .  A
C2869      H2874   1.084       .  S
C2870      C2871   1.414       .  A
C2871      C2872   1.407       .  A
C2871      N2875   1.428       .  S
C2872      H2876   1.083       .  S
N2873      O2883   1.262       .  A
N2873      O2884   1.262       .  A
N2875      O2881   1.262       .  A
N2875      O2882   1.262       .  A
C2885      C2886   1.403       .  A
C2885      C2890   1.402       .  A
C2885      H2895   1.083       .  S
C2886      C2891   1.494       .  S
C2886      C2887   1.414       .  A
C2887      C2888   1.405       .  A
C2887      N2892   1.428       .  S
C2888      C2889   1.405       .  A
C2888      H2893   1.084   1_455  S
C2889      C2890   1.417       .  A
C2890      N2894   1.429       .  S
C2891      C2896   1.409       .  A
C2891      C2900   1.398       .  A
N2892      O2907   1.262       .  A
N2892      O2908   1.262       .  A
N2894      O2905   1.262       .  A
N2894      O2906   1.262       .  A
C2896      C2897   1.402       .  A
C2896      N2901   1.430       .  S
C2897      C2898   1.415       .  A
C2897      H2902   1.078       .  S
C2898      C2899   1.435       .  A
C2899      C2900   1.404       .  A
C2899      N2903   1.431       .  S
C2900      H2904   1.083       .  S
N2901      O2911   1.262       .  A
N2901      O2912   1.262       .  A
N2903      O2909   1.262       .  A
N2903      O2910   1.261       .  A
C2913      C2914   1.400   1_455  A
C2913      C2918   1.400       .  A
C2913      H2923   1.084   1_556  S
C2914      C2919   1.481   1_556  S
C2914      C2915   1.409       .  A
C2915      C2916   1.404       .  A
C2915      N2920   1.428       .  S
C2916      C2917   1.405       .  A
C2916      H2921   1.084       .  S
C2917      C2918   1.415   1_655  A
C2918      N2922   1.429       .  S
C2919      C2924   1.410   1_655  A
C2919      C2928   1.399       .  A
N2920      O2935   1.262       .  A
N2920      O2936   1.262       .  A
N2922      O2933   1.262       .  A
N2922      O2934   1.262       .  A
C2924      C2925   1.406       .  A
C2924      N2929   1.428       .  S
C2925      C2926   1.405   1_455  A
C2925      H2930   1.084       .  S
C2926      C2927   1.414       .  A
C2927      C2928   1.397       .  A
C2927      N2931   1.429       .  S
C2928      H2932   1.085       .  S
N2929      O2939   1.262       .  A
N2929      O2940   1.262       .  A
N2931      O2937   1.262       .  A
N2931      O2938   1.262       .  A
C2941      C2942   1.402       .  A
C2941      C2946   1.396       .  A
C2941      H2951   1.083       .  S
C2942      C2947   1.477       .  S
C2942      C2943   1.409       .  A
C2943      C2944   1.394       .  A
C2943      N2948   1.429       .  S
C2944      C2945   1.402       .  A
C2944      H2949   1.084       .  S
C2945      C2946   1.410       .  A
C2946      N2950   1.429       .  S
C2947      C2952   1.410       .  A
C2947      C2956   1.402       .  A
N2948      O2963   1.262       .  A
N2948      O2964   1.262       .  A
N2950      O2961   1.262       .  A
N2950      O2962   1.262       .  A
C2952      C2953   1.391       .  A
C2952      N2957   1.430       .  S
C2953      C2954   1.402       .  A
C2953      H2958   1.084       .  S
C2954      C2955   1.413       .  A
C2955      C2956   1.402       .  A
C2955      N2959   1.428       .  S
C2956      H2960   1.083       .  S
N2957      O2967   1.262       .  A
N2957      O2968   1.262       .  A
N2959      O2965   1.262       .  A
N2959      O2966   1.262       .  A
C2969      C2970   1.401       .  A
C2969      C2974   1.401       .  A
C2969      H2979   1.084       .  S
C2970      C2975   1.478       .  S
C2970      C2971   1.407       .  A
C2971      C2972   1.399       .  A
C2971      N2976   1.428       .  S
C2972      C2973   1.404       .  A
C2972      H2977   1.084       .  S
C2973      C2974   1.415       .  A
C2974      N2978   1.429       .  S
C2975      C2980   1.407       .  A
C2975      C2984   1.402       .  A
N2976      O2991   1.262       .  A
N2976      O2992   1.262       .  A
N2978      O2989   1.262       .  A
N2978      O2990   1.262       .  A
C2980      C2981   1.395       .  A
C2980      N2985   1.428       .  S
C2981      C2982   1.404       .  A
C2981      H2986   1.084       .  S
C2982      C2983   1.415       .  A
C2983      C2984   1.403       .  A
C2983      N2987   1.429       .  S
C2984      H2988   1.084       .  S
N2985      O2995   1.262       .  A
N2985      O2996   1.262       .  A
N2987      O2993   1.262       .  A
N2987      O2994   1.262       .  A
C2997      C2998   1.403   1_655  A
C2997      C3002   1.404       .  A
C2997      H3007   1.084       .  S
C2998      C3003   1.487       .  S
C2998      C2999   1.410       .  A
C2999      C3000   1.400       .  A
C2999      N3004   1.429       .  S
C3000      C3001   1.405   1_455  A
C3000      H3005   1.084       .  S
C3001      C3002   1.416       .  A
C3002      N3006   1.429       .  S
C3003      C3008   1.402       .  A
C3003      C3012   1.398       .  A
N3004      O3019   1.262       .  A
N3004      O3020   1.262       .  A
N3006      O3017   1.262       .  A
N3006      O3018   1.262       .  A
C3008      C3009   1.397       .  A
C3008      N3013   1.429   1_455  S
C3009      C3010   1.425       .  A
C3009      H3014   1.084       .  S
C3010      C3011   1.436       .  A
C3011      C3012   1.405       .  A
C3011      N3015   1.428       .  S
C3012      H3016   1.084       .  S
N3013      O3023   1.262       .  A
N3013      O3024   1.262       .  A
N3015      O3021   1.262       .  A
N3015      O3022   1.261       .  A
C3025      C3026   1.399       .  A
C3025      C3030   1.395       .  A
C3025      H3035   1.084       .  S
C3026      C3031   1.482       .  S
C3026      C3027   1.412       .  A
C3027      C3028   1.402       .  A
C3027      N3032   1.427       .  S
C3028      C3029   1.401       .  A
C3028      H3033   1.084       .  S
C3029      C3030   1.413       .  A
C3030      N3034   1.428       .  S
C3031      C3036   1.409       .  A
C3031      C3040   1.406       .  A
N3032      O3047   1.262       .  A
N3032      O3048   1.261       .  A
N3034      O3045   1.262   1_565  A
N3034      O3046   1.261       .  A
C3036      C3037   1.397       .  A
C3036      N3041   1.429   1_565  S
C3037      C3038   1.403       .  A
C3037      H3042   1.084   1_565  S
C3038      C3039   1.412       .  A
C3039      C3040   1.407       .  A
C3039      N3043   1.428       .  S
C3040      H3044   1.084       .  S
N3041      O3051   1.262       .  A
N3041      O3052   1.261       .  A
N3043      O3049   1.262       .  A
N3043      O3050   1.262       .  A
C3053      C3054   1.404       .  A
C3053      C3058   1.403       .  A
C3053      H3063   1.084       .  S
C3054      C3059   1.485       .  S
C3054      C3055   1.410       .  A
C3055      C3056   1.397       .  A
C3055      N3060   1.429       .  S
C3056      C3057   1.404       .  A
C3056      H3061   1.084       .  S
C3057      C3058   1.414       .  A
C3058      N3062   1.428       .  S
C3059      C3064   1.411       .  A
C3059      C3068   1.407       .  A
N3060      O3075   1.262       .  A
N3060      O3076   1.262       .  A
N3062      O3073   1.262       .  A
N3062      O3074   1.262       .  A
C3064      C3065   1.392       .  A
C3064      N3069   1.429       .  S
C3065      C3066   1.400       .  A
C3065      H3070   1.085       .  S
C3066      C3067   1.410       .  A
C3067      C3068   1.405       .  A
C3067      N3071   1.428       .  S
C3068      H3072   1.083       .  S
N3069      O3079   1.262       .  A
N3069      O3080   1.262       .  A
N3071      O3077   1.262       .  A
N3071      O3078   1.262       .  A
C3081      C3082   1.403       .  A
C3081      C3086   1.400       .  A
C3081      H3091   1.083       .  S
C3082      C3087   1.489       .  S
C3082      C3083   1.412       .  A
C3083      C3084   1.402       .  A
C3083      N3088   1.428       .  S
C3084      C3085   1.404       .  A
C3084      H3089   1.084       .  S
C3085      C3086   1.415       .  A
C3086      N3090   1.429       .  S
C3087      C3092   1.412       .  A
C3087      C3096   1.405       .  A
N3088      O3103   1.262       .  A
N3088      O3104   1.262       .  A
N3090      O3101   1.262       .  A
N3090      O3102   1.262       .  A
C3092      C3093   1.395       .  A
C3092      N3097   1.429       .  S
C3093      C3094   1.404       .  A
C3093      H3098   1.084       .  S
C3094      C3095   1.414       .  A
C3095      C3096   1.405       .  A
C3095      N3099   1.428       .  S
C3096      H3100   1.083       .  S
N3097      O3107   1.262       .  A
N3097      O3108   1.262       .  A
N3099      O3105   1.262       .  A
N3099      O3106   1.262       .  A
C3109      C3110   1.403       .  A
C3109      C3114   1.406       .  A
C3109      H3119   1.084       .  S
C3110      C3115   1.485       .  S
C3110      C3111   1.408       .  A
C3111      C3112   1.399       .  A
C3111      N3116   1.428       .  S
C3112      C3113   1.404       .  A
C3112      H3117   1.084       .  S
C3113      C3114   1.415       .  A
C3114      N3118   1.428       .  S
C3115      C3120   1.407       .  A
C3115      C3124   1.405       .  A
N3116      O3131   1.262       .  A
N3116      O3132   1.262       .  A
N3118      O3129   1.262       .  A
N3118      O3130   1.262       .  A
C3120      C3121   1.396       .  A
C3120      N3125   1.429       .  S
C3121      C3122   1.406       .  A
C3121      H3126   1.084       .  S
C3122      C3123   1.414       .  A
C3123      C3124   1.409       .  A
C3123      N3127   1.427       .  S
C3124      H3128   1.084       .  S
N3125      O3135   1.262       .  A
N3125      O3136   1.262       .  A
N3127      O3133   1.262       .  A
N3127      O3134   1.262       .  A
C3137      C3138   1.403       .  A
C3137      C3142   1.406       .  A
C3137      H3147   1.084       .  S
C3138      C3143   1.475       .  S
C3138      C3139   1.405       .  A
C3139      C3140   1.392       .  A
C3139      N3144   1.428       .  S
C3140      C3141   1.404       .  A
C3140      H3145   1.084       .  S
C3141      C3142   1.415       .  A
C3142      N3146   1.429       .  S
C3143      C3148   1.406       .  A
C3143      C3152   1.399       .  A
N3144      O3159   1.262       .  A
N3144      O3160   1.261       .  A
N3146      O3157   1.262       .  A
N3146      O3158   1.262       .  A
C3148      C3149   1.401       .  A
C3148      N3153   1.428       .  S
C3149      C3150   1.407       .  A
C3149      H3154   1.084       .  S
C3150      C3151   1.414       .  A
C3151      C3152   1.397       .  A
C3151      N3155   1.429       .  S
C3152      H3156   1.084       .  S
N3153      O3163   1.262       .  A
N3153      O3164   1.262       .  A
N3155      O3161   1.262       .  A
N3155      O3162   1.262       .  A
C3165      C3166   1.402       .  A
C3165      C3170   1.402       .  A
C3165      H3175   1.084       .  S
C3166      C3171   1.482       .  S
C3166      C3167   1.411       .  A
C3167      C3168   1.398       .  A
C3167      N3172   1.429       .  S
C3168      C3169   1.402       .  A
C3168      H3173   1.084       .  S
C3169      C3170   1.414       .  A
C3170      N3174   1.429       .  S
C3171      C3176   1.409       .  A
C3171      C3180   1.400   1_565  A
N3172      O3187   1.262   1_565  A
N3172      O3188   1.261       .  A
N3174      O3185   1.262       .  A
N3174      O3186   1.262       .  A
C3176      C3177   1.402       .  A
C3176      N3181   1.427       .  S
C3177      C3178   1.404       .  A
C3177      H3182   1.084       .  S
C3178      C3179   1.416   1_565  A
C3179      C3180   1.398       .  A
C3179      N3183   1.429       .  S
C3180      H3184   1.084       .  S
N3181      O3191   1.262       .  A
N3181      O3192   1.262       .  A
N3183      O3189   1.262       .  A
N3183      O3190   1.262       .  A
C3193      C3194   1.399       .  A
C3193      C3198   1.400       .  A
C3193      H3203   1.084       .  S
C3194      C3199   1.464       .  S
C3194      C3195   1.403       .  A
C3195      C3196   1.391       .  A
C3195      N3200   1.429       .  S
C3196      C3197   1.405       .  A
C3196      H3201   1.084       .  S
C3197      C3198   1.416       .  A
C3198      N3202   1.429       .  S
C3199      C3204   1.403       .  A
C3199      C3208   1.398       .  A
N3200      O3215   1.262   1_545  A
N3200      O3216   1.261       .  A
N3202      O3213   1.262       .  A
N3202      O3214   1.262       .  A
C3204      C3205   1.394       .  A
C3204      N3209   1.427       .  S
C3205      C3206   1.404       .  A
C3205      H3210   1.084       .  S
C3206      C3207   1.413       .  A
C3207      C3208   1.394       .  A
C3207      N3211   1.428   1_545  S
C3208      H3212   1.084   1_545  S
N3209      O3219   1.262       .  A
N3209      O3220   1.261       .  A
N3211      O3217   1.261       .  A
N3211      O3218   1.262       .  A
C3221      C3222   1.402       .  A
C3221      C3226   1.398   1_455  A
C3221      H3231   1.083   1_455  S
C3222      C3227   1.483       .  S
C3222      C3223   1.413       .  A
C3223      C3224   1.400       .  A
C3223      N3228   1.429       .  S
C3224      C3225   1.401       .  A
C3224      H3229   1.084       .  S
C3225      C3226   1.413   1_455  A
C3226      N3230   1.430       .  S
C3227      C3232   1.413       .  A
C3227      C3236   1.402       .  A
N3228      O3243   1.262       .  A
N3228      O3244   1.261       .  A
N3230      O3241   1.262       .  A
N3230      O3242   1.262       .  A
C3232      C3233   1.401       .  A
C3232      N3237   1.429       .  S
C3233      C3234   1.401       .  A
C3233      H3238   1.084       .  S
C3234      C3235   1.411       .  A
C3235      C3236   1.396       .  A
C3235      N3239   1.429       .  S
C3236      H3240   1.083       .  S
N3237      O3247   1.262       .  A
N3237      O3248   1.261       .  A
N3239      O3245   1.262       .  A
N3239      O3246   1.262       .  A
C3249      C3250   1.401       .  A
C3249      C3254   1.402       .  A
C3249      H3259   1.084       .  S
C3250      C3255   1.476       .  S
C3250      C3251   1.406       .  A
C3251      C3252   1.396       .  A
C3251      N3256   1.428       .  S
C3252      C3253   1.405       .  A
C3252      H3257   1.084       .  S
C3253      C3254   1.415       .  A
C3254      N3258   1.429       .  S
C3255      C3260   1.406       .  A
C3255      C3264   1.402       .  A
N3256      O3271   1.262       .  A
N3256      O3272   1.262       .  A
N3258      O3269   1.262       .  A
N3258      O3270   1.262       .  A
C3260      C3261   1.395       .  A
C3260      N3265   1.428       .  S
C3261      C3262   1.403       .  A
C3261      H3266   1.084       .  S
C3262      C3263   1.414       .  A
C3263      C3264   1.403       .  A
C3263      N3267   1.429       .  S
C3264      H3268   1.084       .  S
N3265      O3275   1.262       .  A
N3265      O3276   1.262       .  A
N3267      O3273   1.262       .  A
N3267      O3274   1.262       .  A
C3277      C3278   1.402       .  A
C3277      C3282   1.409       .  A
C3277      H3287   1.084       .  S
C3278      C3283   1.483       .  S
C3278      C3279   1.408   1_455  A
C3279      C3280   1.397       .  A
C3279      N3284   1.429       .  S
C3280      C3281   1.406       .  A
C3280      H3285   1.084       .  S
C3281      C3282   1.418   1_655  A
C3282      N3286   1.428       .  S
C3283      C3288   1.411       .  A
C3283      C3292   1.400       .  A
N3284      O3299   1.262       .  A
N3284      O3300   1.262       .  A
N3286      O3297   1.262       .  A
N3286      O3298   1.262       .  A
C3288      C3289   1.405       .  A
C3288      N3293   1.427       .  S
C3289      C3290   1.404       .  A
C3289      H3294   1.084       .  S
C3290      C3291   1.413       .  A
C3291      C3292   1.397       .  A
C3291      N3295   1.429       .  S
C3292      H3296   1.084       .  S
N3293      O3303   1.262       .  A
N3293      O3304   1.262   1_455  A
N3295      O3301   1.262       .  A
N3295      O3302   1.262   1_455  A
C3305      C3306   1.402       .  A
C3305      C3310   1.404       .  A
C3305      H3315   1.084       .  S
C3306      C3311   1.478       .  S
C3306      C3307   1.406       .  A
C3307      C3308   1.394       .  A
C3307      N3312   1.428   1_655  S
C3308      C3309   1.405       .  A
C3308      H3313   1.084   1_655  S
C3309      C3310   1.417       .  A
C3310      N3314   1.429       .  S
C3311      C3316   1.408       .  A
C3311      C3320   1.401       .  A
N3312      O3327   1.262       .  A
N3312      O3328   1.262       .  A
N3314      O3325   1.262       .  A
N3314      O3326   1.262       .  A
C3316      C3317   1.398       .  A
C3316      N3321   1.428       .  S
C3317      C3318   1.405       .  A
C3317      H3322   1.084       .  S
C3318      C3319   1.412       .  A
C3319      C3320   1.399       .  A
C3319      N3323   1.428       .  S
C3320      H3324   1.084       .  S
N3321      O3331   1.262       .  A
N3321      O3332   1.262       .  A
N3323      O3329   1.262       .  A
N3323      O3330   1.262   1_655  A
C3333      C3334   1.400       .  A
C3333      C3338   1.397       .  A
C3333      H3343   1.084       .  S
C3334      C3339   1.476       .  S
C3334      C3335   1.408       .  A
C3335      C3336   1.401       .  A
C3335      N3340   1.428       .  S
C3336      C3337   1.403       .  A
C3336      H3341   1.084       .  S
C3337      C3338   1.411       .  A
C3338      N3342   1.429       .  S
C3339      C3344   1.405       .  A
C3339      C3348   1.403       .  A
N3340      O3355   1.262       .  A
N3340      O3356   1.262       .  A
N3342      O3353   1.262       .  A
N3342      O3354   1.262       .  A
C3344      C3345   1.390       .  A
C3344      N3349   1.429       .  S
C3345      C3346   1.403       .  A
C3345      H3350   1.084       .  S
C3346      C3347   1.417       .  A
C3347      C3348   1.408       .  A
C3347      N3351   1.429       .  S
C3348      H3352   1.084       .  S
N3349      O3359   1.262       .  A
N3349      O3360   1.262       .  A
N3351      O3357   1.262       .  A
N3351      O3358   1.262       .  A
C3361      C3362   1.398       .  A
C3361      C3366   1.405       .  A
C3361      H3371   1.084       .  S
C3362      C3367   1.485       .  S
C3362      C3363   1.401       .  A
C3363      C3364   1.396       .  A
C3363      N3368   1.429       .  S
C3364      C3365   1.422       .  A
C3364      H3369   1.076       .  S
C3365      C3366   1.434       .  A
C3366      N3370   1.431       .  S
C3367      C3372   1.411       .  A
C3367      C3376   1.402       .  A
N3368      O3383   1.262       .  A
N3368      O3384   1.262       .  A
N3370      O3381   1.262       .  A
N3370      O3382   1.261       .  A
C3372      C3373   1.402       .  A
C3372      N3377   1.429       .  S
C3373      C3374   1.403       .  A
C3373      H3378   1.084       .  S
C3374      C3375   1.415       .  A
C3375      C3376   1.402       .  A
C3375      N3379   1.429       .  S
C3376      H3380   1.084       .  S
N3377      O3387   1.262       .  A
N3377      O3388   1.262       .  A
N3379      O3385   1.262       .  A
N3379      O3386   1.262       .  A
C3389      C3390   1.402       .  A
C3389      C3394   1.422       .  A
C3389      H3399   1.084       .  S
C3390      C3395   1.504       .  S
C3390      C3391   1.401       .  A
C3391      C3392   1.397       .  A
C3391      N3396   1.427       .  S
C3392      C3393   1.420       .  A
C3392      H3397   1.070       .  S
C3393      C3394   1.446       .  A
C3394      N3398   1.434       .  S
C3395      C3400   1.410   1_655  A
C3395      C3404   1.396       .  A
N3396      O3411   1.262       .  A
N3396      O3412   1.262       .  A
N3398      O3409   1.262       .  A
N3398      O3410   1.262       .  A
C3400      C3401   1.413       .  A
C3400      N3405   1.428       .  S
C3401      C3402   1.419       .  A
C3401      H3406   1.083       .  S
C3402      C3403   1.444       .  A
C3403      C3404   1.411   1_455  A
C3403      N3407   1.434       .  S
C3404      H3408   1.084       .  S
N3405      O3415   1.262       .  A
N3405      O3416   1.262       .  A
N3407      O3413   1.260       .  A
N3407      O3414   1.262       .  A
C3417      C3418   1.401       .  A
C3417      C3422   1.413       .  A
C3417      H3427   1.084       .  S
C3418      C3423   1.491       .  S
C3418      C3419   1.401       .  A
C3419      C3420   1.396       .  A
C3419      N3424   1.429       .  S
C3420      C3421   1.424       .  A
C3420      H3425   1.083       .  S
C3421      C3422   1.435       .  A
C3422      N3426   1.427       .  S
C3423      C3428   1.411       .  A
C3423      C3432   1.402       .  A
N3424      O3439   1.262       .  A
N3424      O3440   1.262       .  A
N3426      O3437   1.263       .  A
N3426      O3438   1.261       .  A
C3428      C3429   1.405       .  A
C3428      N3433   1.428       .  S
C3429      C3430   1.407       .  A
C3429      H3434   1.084       .  S
C3430      C3431   1.416       .  A
C3431      C3432   1.402       .  A
C3431      N3435   1.428       .  S
C3432      H3436   1.084       .  S
N3433      O3443   1.262       .  A
N3433      O3444   1.262       .  A
N3435      O3441   1.262       .  A
N3435      O3442   1.262       .  A
C3445      C3446   1.394       .  A
C3445      C3450   1.414       .  A
C3445      H3455   1.084       .  S
C3446      C3451   1.515       .  S
C3446      C3447   1.409       .  A
C3447      C3448   1.421       .  A
C3447      N3452   1.428       .  S
C3448      C3449   1.423       .  A
C3448      H3453   1.079       .  S
C3449      C3450   1.441       .  A
C3450      N3454   1.425       .  S
C3451      C3456   1.413       .  A
C3451      C3460   1.396       .  A
N3452      O3467   1.262       .  A
N3452      O3468   1.261       .  A
N3454      O3465   1.262       .  A
N3454      O3466   1.263       .  A
C3456      C3457   1.424       .  A
C3456      N3461   1.428       .  S
C3457      C3458   1.419       .  A
C3457      H3462   1.078       .  S
C3458      C3459   1.444       .  A
C3459      C3460   1.408       .  A
C3459      N3463   1.434       .  S
C3460      H3464   1.084       .  S
N3461      O3471   1.262       .  A
N3461      O3472   1.262       .  A
N3463      O3469   1.263       .  A
N3463      O3470   1.260       .  A
C3473      C3474   1.406       .  A
C3473      C3478   1.423       .  A
C3473      H3483   1.084       .  S
C3474      C3479   1.508       .  S
C3474      C3475   1.396       .  A
C3475      C3476   1.405       .  A
C3475      N3480   1.431       .  S
C3476      C3477   1.439       .  A
C3476      H3481   1.076       .  S
C3477      C3478   1.435       .  A
C3478      N3482   1.429       .  S
C3479      C3484   1.404       .  A
C3479      C3488   1.400       .  A
N3480      O3495   1.262       .  A
N3480      O3496   1.262       .  A
N3482      O3493   1.262       .  A
N3482      O3494   1.262       .  A
C3484      C3485   1.412       .  A
C3484      N3489   1.430       .  S
C3485      C3486   1.429       .  A
C3485      H3490   1.078       .  S
C3486      C3487   1.437       .  A
C3487      C3488   1.416       .  A
C3487      N3491   1.430       .  S
C3488      H3492   1.084       .  S
N3489      O3499   1.262       .  A
N3489      O3500   1.262       .  A
N3491      O3497   1.262       .  A
N3491      O3498   1.262       .  A
C3501      C3502   1.400       .  A
C3501      C3506   1.401       .  A
C3501      H3511   1.082       .  S
C3502      C3507   1.498       .  S
C3502      C3503   1.411       .  A
C3503      C3504   1.402       .  A
C3503      N3508   1.429       .  S
C3504      C3505   1.416       .  A
C3504      H3509   1.077       .  S
C3505      C3506   1.433       .  A
C3506      N3510   1.432       .  S
C3507      C3512   1.416       .  A
C3507      C3516   1.406       .  A
N3508      O3523   1.262       .  A
N3508      O3524   1.261       .  A
N3510      O3521   1.262       .  A
N3510      O3522   1.262       .  A
C3512      C3513   1.400       .  A
C3512      N3517   1.430       .  S
C3513      C3514   1.404       .  A
C3513      H3518   1.084   1_565  S
C3514      C3515   1.414       .  A
C3515      C3516   1.405       .  A
C3515      N3519   1.428       .  S
C3516      H3520   1.082       .  S
N3517      O3527   1.262   1_565  A
N3517      O3528   1.261       .  A
N3519      O3525   1.262       .  A
N3519      O3526   1.262       .  A
C3529      C3530   1.403       .  A
C3529      C3534   1.416       .  A
C3529      H3539   1.083       .  S
C3530      C3535   1.511       .  S
C3530      C3531   1.409       .  A
C3531      C3532   1.414       .  A
C3531      N3536   1.429       .  S
C3532      C3533   1.416       .  A
C3532      H3537   1.079       .  S
C3533      C3534   1.433       .  A
C3534      N3538   1.430       .  S
C3535      C3540   1.410       .  A
C3535      C3544   1.398       .  A
N3536      O3551   1.262       .  A
N3536      O3552   1.262       .  A
N3538      O3549   1.262       .  A
N3538      O3550   1.262       .  A
C3540      C3541   1.422       .  A
C3540      N3545   1.428       .  S
C3541      C3542   1.420       .  A
C3541      H3546   1.080       .  S
C3542      C3543   1.438       .  A
C3543      C3544   1.407       .  A
C3543      N3547   1.432       .  S
C3544      H3548   1.084       .  S
N3545      O3555   1.262       .  A
N3545      O3556   1.261       .  A
N3547      O3553   1.262       .  A
N3547      O3554   1.262       .  A
C3557      C3558   1.409       .  A
C3557      C3562   1.415       .  A
C3557      H3567   1.081       .  S
C3558      C3563   1.521   1_545  S
C3558      C3559   1.415       .  A
C3559      C3560   1.409       .  A
C3559      N3564   1.430   1_545  S
C3560      C3561   1.422       .  A
C3560      H3565   1.079       .  S
C3561      C3562   1.428       .  A
C3562      N3566   1.430       .  S
C3563      C3568   1.413       .  A
C3563      C3572   1.408       .  A
N3564      O3579   1.262       .  A
N3564      O3580   1.262       .  A
N3566      O3577   1.262       .  A
N3566      O3578   1.262       .  A
C3568      C3569   1.407       .  A
C3568      N3573   1.429       .  S
C3569      C3570   1.423       .  A
C3569      H3574   1.080       .  S
C3570      C3571   1.428       .  A
C3571      C3572   1.416       .  A
C3571      N3575   1.428       .  S
C3572      H3576   1.080       .  S
N3573      O3583   1.262   1_565  A
N3573      O3584   1.262       .  A
N3575      O3581   1.263       .  A
N3575      O3582   1.262       .  A
C3585      C3586   1.393       .  A
C3585      C3590   1.402       .  A
C3585      H3595   1.085       .  S
C3586      C3591   1.479       .  S
C3586      C3587   1.400       .  A
C3587      C3588   1.398       .  A
C3587      N3592   1.428       .  S
C3588      C3589   1.420       .  A
C3588      H3593   1.082       .  S
C3589      C3590   1.446       .  A
C3590      N3594   1.437       .  S
C3591      C3596   1.407       .  A
C3591      C3600   1.406       .  A
N3592      O3607   1.262       .  A
N3592      O3608   1.261       .  A
N3594      O3605   1.262   1_455  A
N3594      O3606   1.260       .  A
C3596      C3597   1.394       .  A
C3596      N3601   1.429       .  S
C3597      C3598   1.403       .  A
C3597      H3602   1.084       .  S
C3598      C3599   1.411       .  A
C3599      C3600   1.407       .  A
C3599      N3603   1.428       .  S
C3600      H3604   1.084       .  S
N3601      O3611   1.262       .  A
N3601      O3612   1.262       .  A
N3603      O3609   1.262       .  A
N3603      O3610   1.262       .  A
C3613      C3614   1.393       .  A
C3613      C3618   1.409       .  A
C3613      H3623   1.085       .  S
C3614      C3619   1.513       .  S
C3614      C3615   1.411       .  A
C3615      C3616   1.417       .  A
C3615      N3620   1.427       .  S
C3616      C3617   1.424       .  A
C3616      H3621   1.083       .  S
C3617      C3618   1.446       .  A
C3618      N3622   1.424       .  S
C3619      C3624   1.412       .  A
C3619      C3628   1.404       .  A
N3620      O3635   1.262       .  A
N3620      O3636   1.261       .  A
N3622      O3633   1.260       .  A
N3622      O3634   1.262       .  A
C3624      C3625   1.412       .  A
C3624      N3629   1.428       .  S
C3625      C3626   1.422       .  A
C3625      H3630   1.078       .  S
C3626      C3627   1.432       .  A
C3627      C3628   1.413       .  A
C3627      N3631   1.431       .  S
C3628      H3632   1.084       .  S
N3629      O3639   1.262       .  A
N3629      O3640   1.261       .  A
N3631      O3637   1.262       .  A
N3631      O3638   1.262       .  A
C3641      C3642   1.403       .  A
C3641      C3646   1.412       .  A
C3641      H3651   1.079       .  S
C3642      C3647   1.526       .  S
C3642      C3643   1.418       .  A
C3643      C3644   1.404       .  A
C3643      N3648   1.429       .  S
C3644      C3645   1.419       .  A
C3644      H3649   1.078       .  S
C3645      C3646   1.436       .  A
C3646      N3650   1.426       .  S
C3647      C3652   1.423       .  A
C3647      C3656   1.405       .  A
N3648      O3663   1.262       .  A
N3648      O3664   1.262       .  A
N3650      O3661   1.263       .  A
N3650      O3662   1.262       .  A
C3652      C3653   1.409       .  A
C3652      N3657   1.429       .  S
C3653      C3654   1.413       .  A
C3653      H3658   1.084       .  S
C3654      C3655   1.435       .  A
C3655      C3656   1.408       .  A
C3655      N3659   1.433       .  S
C3656      H3660   1.080       .  S
N3657      O3667   1.262       .  A
N3657      O3668   1.262       .  A
N3659      O3665   1.261       .  A
N3659      O3666   1.262       .  A
C3669      C3670   1.409       .  A
C3669      C3674   1.416       .  A
C3669      H3679   1.083       .  S
C3670      C3675   1.506       .  S
C3670      C3671   1.409       .  A
C3671      C3672   1.401       .  A
C3671      N3676   1.429       .  S
C3672      C3673   1.419       .  A
C3672      H3677   1.081       .  S
C3673      C3674   1.424       .  A
C3674      N3678   1.430       .  S
C3675      C3680   1.408       .  A
C3675      C3684   1.403       .  A
N3676      O3691   1.262       .  A
N3676      O3692   1.262       .  A
N3678      O3689   1.262       .  A
N3678      O3690   1.261       .  A
C3680      C3681   1.405       .  A
C3680      N3685   1.429       .  S
C3681      C3682   1.421       .  A
C3681      H3686   1.078       .  S
C3682      C3683   1.437       .  A
C3683      C3684   1.412       .  A
C3683      N3687   1.433       .  S
C3684      H3688   1.083       .  S
N3685      O3695   1.262       .  A
N3685      O3696   1.262       .  A
N3687      O3693   1.262       .  A
N3687      O3694   1.262       .  A
C3697      C3698   1.384       .  A
C3697      C3702   1.391       .  A
C3697      H3707   1.085       .  S
C3698      C3703   1.481       .  S
C3698      C3699   1.406       .  A
C3699      C3700   1.414       .  A
C3699      N3704   1.428       .  S
C3700      C3701   1.417       .  A
C3700      H3705   1.081       .  S
C3701      C3702   1.445       .  A
C3702      N3706   1.433       .  S
C3703      C3708   1.406   1_655  A
C3703      C3712   1.390       .  A
N3704      O3719   1.262       .  A
N3704      O3720   1.262       .  A
N3706      O3717   1.262       .  A
N3706      O3718   1.262       .  A
C3708      C3709   1.410       .  A
C3708      N3713   1.429       .  S
C3709      C3710   1.416       .  A
C3709      H3714   1.079       .  S
C3710      C3711   1.437       .  A
C3711      C3712   1.398   1_455  A
C3711      N3715   1.432       .  S
C3712      H3716   1.085       .  S
N3713      O3723   1.262       .  A
N3713      O3724   1.262       .  A
N3715      O3721   1.262       .  A
N3715      O3722   1.261       .  A
C3725      C3726   1.388       .  A
C3725      C3730   1.399       .  A
C3725      H3735   1.085       .  S
C3726      C3731   1.481       .  S
C3726      C3727   1.399       .  A
C3727      C3728   1.403       .  A
C3727      N3732   1.427       .  S
C3728      C3729   1.423       .  A
C3728      H3733   1.074       .  S
C3729      C3730   1.441       .  A
C3730      N3734   1.427       .  S
C3731      C3736   1.409       .  A
C3731      C3740   1.403       .  A
N3732      O3747   1.262       .  A
N3732      O3748   1.262       .  A
N3734      O3745   1.263       .  A
N3734      O3746   1.262       .  A
C3736      C3737   1.397       .  A
C3736      N3741   1.429       .  S
C3737      C3738   1.406       .  A
C3737      H3742   1.084       .  S
C3738      C3739   1.414       .  A
C3739      C3740   1.405       .  A
C3739      N3743   1.428       .  S
C3740      H3744   1.084       .  S
N3741      O3751   1.262       .  A
N3741      O3752   1.261       .  A
N3743      O3749   1.262       .  A
N3743      O3750   1.262       .  A
C3753      C3754   1.393       .  A
C3753      C3758   1.397       .  A
C3753      H3763   1.080       .  S
C3754      C3759   1.517       .  S
C3754      C3755   1.419       .  A
C3755      C3756   1.412       .  A
C3755      N3760   1.428       .  S
C3756      C3757   1.419       .  A
C3756      H3761   1.084       .  S
C3757      C3758   1.447       .  A
C3758      N3762   1.432       .  S
C3759      C3764   1.421       .  A
C3759      C3768   1.402       .  A
N3760      O3775   1.262       .  A
N3760      O3776   1.262       .  A
N3762      O3773   1.259       .  A
N3762      O3774   1.261       .  A
C3764      C3765   1.398       .  A
C3764      N3769   1.432       .  S
C3765      C3766   1.407       .  A
C3765      H3770   1.070       .  S
C3766      C3767   1.439       .  A
C3767      C3768   1.409       .  A
C3767      N3771   1.433       .  S
C3768      H3772   1.079       .  S
N3769      O3779   1.263       .  A
N3769      O3780   1.261       .  A
N3771      O3777   1.262       .  A
N3771      O3778   1.262       .  A
C3781      C3782   1.417       .  A
C3781      C3786   1.427       .  A
C3781      H3791   1.078       .  S
C3782      C3787   1.540       .  S
C3782      C3783   1.421       .  A
C3783      C3784   1.394       .  A
C3783      N3788   1.432       .  S
C3784      C3785   1.414       .  A
C3784      H3789   1.076       .  S
C3785      C3786   1.432       .  A
C3786      N3790   1.426       .  S
C3787      C3792   1.426       .  A
C3787      C3796   1.405       .  A
N3788      O3803   1.263       .  A
N3788      O3804   1.262       .  A
N3790      O3801   1.262       .  A
N3790      O3802   1.262       .  A
C3792      C3793   1.422       .  A
C3792      N3797   1.427       .  S
C3793      C3794   1.415       .  A
C3793      H3798   1.075       .  S
C3794      C3795   1.433       .  A
C3795      C3796   1.401       .  A
C3795      N3799   1.431       .  S
C3796      H3800   1.078       .  S
N3797      O3807   1.262       .  A
N3797      O3808   1.262       .  A
N3799      O3805   1.262       .  A
N3799      O3806   1.262       .  A
C3809      C3810   1.398       .  A
C3809      C3814   1.409       .  A
C3809      H3819   1.083       .  S
C3810      C3815   1.506       .  S
C3810      C3811   1.408       .  A
C3811      C3812   1.404       .  A
C3811      N3816   1.430       .  S
C3812      C3813   1.424       .  A
C3812      H3817   1.075       .  S
C3813      C3814   1.438       .  A
C3814      N3818   1.427       .  S
C3815      C3820   1.408       .  A
C3815      C3824   1.399       .  A
N3816      O3831   1.262       .  A
N3816      O3832   1.262       .  A
N3818      O3829   1.262       .  A
N3818      O3830   1.262       .  A
C3820      C3821   1.406       .  A
C3820      N3825   1.429       .  S
C3821      C3822   1.422       .  A
C3821      H3826   1.078       .  S
C3822      C3823   1.437       .  A
C3823      C3824   1.409       .  A
C3823      N3827   1.429       .  S
C3824      H3828   1.082       .  S
N3825      O3835   1.262       .  A
N3825      O3836   1.261       .  A
N3827      O3833   1.262       .  A
N3827      O3834   1.261       .  A
C3837      C3838   1.391       .  A
C3837      C3842   1.403       .  A
C3837      H3847   1.082   1_545  S
C3838      C3843   1.510   1_545  S
C3838      C3839   1.416       .  A
C3839      C3840   1.410       .  A
C3839      N3844   1.428       .  S
C3840      C3841   1.415       .  A
C3840      H3845   1.083       .  S
C3841      C3842   1.451       .  A
C3842      N3846   1.431       .  S
C3843      C3848   1.421       .  A
C3843      C3852   1.400       .  A
N3844      O3859   1.261       .  A
N3844      O3860   1.262       .  A
N3846      O3857   1.262       .  A
N3846      O3858   1.261       .  A
C3848      C3849   1.407       .  A
C3848      N3853   1.432       .  S
C3849      C3850   1.414       .  A
C3849      H3854   1.084       .  S
C3850      C3851   1.437       .  A
C3851      C3852   1.408       .  A
C3851      N3855   1.433       .  S
C3852      H3856   1.082       .  S
N3853      O3863   1.262       .  A
N3853      O3864   1.262       .  A
N3855      O3861   1.261       .  A
N3855      O3862   1.260       .  A
C3865      C3866   1.400       .  A
C3865      C3870   1.398       .  A
C3865      H3875   1.084       .  S
C3866      C3871   1.482       .  S
C3866      C3867   1.411       .  A
C3867      C3868   1.400       .  A
C3867      N3872   1.428       .  S
C3868      C3869   1.403       .  A
C3868      H3873   1.084       .  S
C3869      C3870   1.417       .  A
C3870      N3874   1.429       .  S
C3871      C3876   1.404       .  A
C3871      C3880   1.392       .  A
N3872      O3887   1.262       .  A
N3872      O3888   1.262       .  A
N3874      O3885   1.262       .  A
N3874      O3886   1.262       .  A
C3876      C3877   1.397       .  A
C3876      N3881   1.429       .  S
C3877      C3878   1.421       .  A
C3877      H3882   1.076       .  S
C3878      C3879   1.438       .  A
C3879      C3880   1.399       .  A
C3879      N3883   1.428       .  S
C3880      H3884   1.084       .  S
N3881      O3891   1.262       .  A
N3881      O3892   1.261       .  A
N3883      O3889   1.262       .  A
N3883      O3890   1.263       .  A
C3893      C3894   1.397       .  A
C3893      C3898   1.414       .  A
C3893      H3903   1.084       .  S
C3894      C3899   1.510       .  S
C3894      C3895   1.411       .  A
C3895      C3896   1.408       .  A
C3895      N3900   1.429       .  S
C3896      C3897   1.420       .  A
C3896      H3901   1.082       .  S
C3897      C3898   1.447       .  A
C3898      N3902   1.432       .  S
C3899      C3904   1.414       .  A
C3899      C3908   1.397       .  A
N3900      O3915   1.262       .  A
N3900      O3916   1.261       .  A
N3902      O3913   1.263       .  A
N3902      O3914   1.262       .  A
C3904      C3905   1.414       .  A
C3904      N3909   1.427       .  S
C3905      C3906   1.417       .  A
C3905      H3910   1.083       .  S
C3906      C3907   1.444       .  A
C3907      C3908   1.408       .  A
C3907      N3911   1.434       .  S
C3908      H3912   1.084       .  S
N3909      O3919   1.262       .  A
N3909      O3920   1.262       .  A
N3911      O3917   1.262       .  A
N3911      O3918   1.261       .  A
C3921      C3922   1.399       .  A
C3921      C3926   1.415       .  A
C3921      H3931   1.084       .  S
C3922      C3927   1.516       .  S
C3922      C3923   1.406       .  A
C3923      C3924   1.420       .  A
C3923      N3928   1.428       .  S
C3924      C3925   1.429       .  A
C3924      H3929   1.076       .  S
C3925      C3926   1.437       .  A
C3926      N3930   1.425       .  S
C3927      C3932   1.401       .  A
C3927      C3936   1.411       .  A
N3928      O3943   1.262       .  A
N3928      O3944   1.261       .  A
N3930      O3941   1.262       .  A
N3930      O3942   1.262       .  A
C3932      C3933   1.404       .  A
C3932      N3937   1.431       .  S
C3933      C3934   1.428       .  A
C3933      H3938   1.078       .  S
C3934      C3935   1.428       .  A
C3935      C3936   1.429       .  A
C3935      N3939   1.426       .  S
C3936      H3940   1.083       .  S
N3937      O3947   1.262       .  A
N3937      O3948   1.262       .  A
N3939      O3945   1.260       .  A
N3939      O3946   1.262       .  A
C3949      C3950   1.396       .  A
C3949      C3954   1.413       .  A
C3949      H3959   1.084       .  S
C3950      C3955   1.509       .  S
C3950      C3951   1.409       .  A
C3951      C3952   1.414       .  A
C3951      N3956   1.429       .  S
C3952      C3953   1.426       .  A
C3952      H3957   1.083       .  S
C3953      C3954   1.439       .  A
C3954      N3958   1.430       .  S
C3955      C3960   1.403       .  A
C3955      C3964   1.410       .  A
N3956      O3971   1.261       .  A
N3956      O3972   1.262       .  A
N3958      O3969   1.263       .  A
N3958      O3970   1.260       .  A
C3960      C3961   1.399       .  A
C3960      N3965   1.431       .  S
C3961      C3962   1.424       .  A
C3961      H3966   1.077       .  S
C3962      C3963   1.431       .  A
C3963      C3964   1.424       .  A
C3963      N3967   1.431       .  S
C3964      H3968   1.083       .  S
N3965      O3975   1.262       .  A
N3965      O3976   1.262       .  A
N3967      O3973   1.261       .  A
N3967      O3974   1.262       .  A
C3977      C3978   1.396       .  A
C3977      C3982   1.406       .  A
C3977      H3987   1.084       .  S
C3978      C3983   1.488       .  S
C3978      C3979   1.404       .  A
C3979      C3980   1.405       .  A
C3979      N3984   1.430       .  S
C3980      C3981   1.421       .  A
C3980      H3985   1.076       .  S
C3981      C3982   1.432       .  A
C3982      N3986   1.428       .  S
C3983      C3988   1.402       .  A
C3983      C3992   1.387       .  A
N3984      O3999   1.261       .  A
N3984      O4000   1.262       .  A
N3986      O3997   1.262       .  A
N3986      O3998   1.262       .  A
C3988      C3989   1.413       .  A
C3988      N3993   1.429       .  S
C3989      C3990   1.426       .  A
C3989      H3994   1.083       .  S
C3990      C3991   1.443       .  A
C3991      C3992   1.401       .  A
C3991      N3995   1.424       .  S
C3992      H3996   1.085       .  S
N3993      O4003   1.261       .  A
N3993      O4004   1.262       .  A
N3995      O4001   1.261       .  A
N3995      O4002   1.262       .  A
C4005      C4006   1.417       .  A
C4005      C4010   1.432       .  A
C4005      H4015   1.081       .  S
C4006      C4011   1.523       .  S
C4006      C4007   1.408       .  A
C4007      C4008   1.390       .  A
C4007      N4012   1.429       .  S
C4008      C4009   1.420       .  A
C4008      H4013   1.081       .  S
C4009      C4010   1.438       .  A
C4010      N4014   1.439       .  S
C4011      C4016   1.412       .  A
C4011      C4020   1.409       .  A
N4012      O4027   1.261       .  A
N4012      O4028   1.262       .  A
N4014      O4025   1.263       .  A
N4014      O4026   1.260       .  A
C4016      C4017   1.410       .  A
C4016      N4021   1.429       .  S
C4017      C4018   1.424       .  A
C4017      H4022   1.073       .  S
C4018      C4019   1.430       .  A
C4019      C4020   1.414       .  A
C4019      N4023   1.429       .  S
C4020      H4024   1.081       .  S
N4021      O4031   1.262       .  A
N4021      O4032   1.262       .  A
N4023      O4029   1.261       .  A
N4023      O4030   1.262       .  A
C4033      C4034   1.403       .  A
C4033      C4038   1.402       .  A
C4033      H4043   1.084       .  S
C4034      C4039   1.481       .  S
C4034      C4035   1.411       .  A
C4035      C4036   1.399       .  A
C4035      N4040   1.429   1_655  S
C4036      C4037   1.403       .  A
C4036      H4041   1.084   1_655  S
C4037      C4038   1.414       .  A
C4038      N4042   1.428       .  S
C4039      C4044   1.410       .  A
C4039      C4048   1.402       .  A
N4040      O4055   1.262       .  A
N4040      O4056   1.262       .  A
N4042      O4053   1.262       .  A
N4042      O4054   1.262       .  A
C4044      C4045   1.402       .  A
C4044      N4049   1.428       .  S
C4045      C4046   1.404       .  A
C4045      H4050   1.084       .  S
C4046      C4047   1.411       .  A
C4047      C4048   1.396       .  A
C4047      N4051   1.429       .  S
C4048      H4052   1.084       .  S
N4049      O4059   1.262       .  A
N4049      O4060   1.261       .  A
N4051      O4057   1.262       .  A
N4051      O4058   1.262       .  A
C4061      C4062   1.391       .  A
C4061      C4066   1.395       .  A
C4061      H4071   1.085       .  S
C4062      C4067   1.472       .  S
C4062      C4063   1.402       .  A
C4063      C4064   1.397       .  A
C4063      N4068   1.428       .  S
C4064      C4065   1.416       .  A
C4064      H4069   1.075       .  S
C4065      C4066   1.438       .  A
C4066      N4070   1.433       .  S
C4067      C4072   1.405       .  A
C4067      C4076   1.402       .  A
N4068      O4083   1.262       .  A
N4068      O4084   1.262       .  A
N4070      O4081   1.262       .  A
N4070      O4082   1.262       .  A
C4072      C4073   1.393       .  A
C4072      N4077   1.429       .  S
C4073      C4074   1.405       .  A
C4073      H4078   1.084       .  S
C4074      C4075   1.414       .  A
C4075      C4076   1.403       .  A
C4075      N4079   1.428       .  S
C4076      H4080   1.084       .  S
N4077      O4087   1.262       .  A
N4077      O4088   1.261       .  A
N4079      O4085   1.262       .  A
N4079      O4086   1.262       .  A
C4089      C4090   1.406       .  A
C4089      C4094   1.411       .  A
C4089      H4099   1.083       .  S
C4090      C4095   1.491       .  S
C4090      C4091   1.411       .  A
C4091      C4092   1.392       .  A
C4091      N4096   1.430   1_545  S
C4092      C4093   1.404       .  A
C4092      H4097   1.084   1_545  S
C4093      C4094   1.416       .  A
C4094      N4098   1.428       .  S
C4095      C4100   1.411       .  A
C4095      C4104   1.403       .  A
N4096      O4111   1.262       .  A
N4096      O4112   1.262       .  A
N4098      O4109   1.262       .  A
N4098      O4110   1.262       .  A
C4100      C4101   1.403       .  A
C4100      N4105   1.428       .  S
C4101      C4102   1.407       .  A
C4101      H4106   1.084       .  S
C4102      C4103   1.415       .  A
C4103      C4104   1.401       .  A
C4103      N4107   1.428       .  S
C4104      H4108   1.084       .  S
N4105      O4115   1.262       .  A
N4105      O4116   1.262       .  A
N4107      O4113   1.262       .  A
N4107      O4114   1.262   1_545  A
C4117      C4118   1.406       .  A
C4117      C4122   1.408       .  A
C4117      H4127   1.083       .  S
C4118      C4123   1.487       .  S
C4118      C4119   1.410       .  A
C4119      C4120   1.394       .  A
C4119      N4124   1.429       .  S
C4120      C4121   1.401       .  A
C4120      H4125   1.084       .  S
C4121      C4122   1.413       .  A
C4122      N4126   1.428       .  S
C4123      C4128   1.410       .  A
C4123      C4132   1.401       .  A
N4124      O4139   1.262       .  A
N4124      O4140   1.262       .  A
N4126      O4137   1.262       .  A
N4126      O4138   1.262       .  A
C4128      C4129   1.404       .  A
C4128      N4133   1.428       .  S
C4129      C4130   1.406       .  A
C4129      H4134   1.084       .  S
C4130      C4131   1.416       .  A
C4131      C4132   1.400       .  A
C4131      N4135   1.429       .  S
C4132      H4136   1.084       .  S
N4133      O4143   1.262       .  A
N4133      O4144   1.262       .  A
N4135      O4141   1.262       .  A
N4135      O4142   1.262       .  A
C4145      C4146   1.393       .  A
C4145      C4150   1.403       .  A
C4145      H4155   1.085       .  S
C4146      C4151   1.481       .  S
C4146      C4147   1.402       .  A
C4147      C4148   1.398       .  A
C4147      N4152   1.429       .  S
C4148      C4149   1.421       .  A
C4148      H4153   1.083       .  S
C4149      C4150   1.443       .  A
C4150      N4154   1.432       .  S
C4151      C4156   1.408       .  A
C4151      C4160   1.403       .  A
N4152      O4167   1.262       .  A
N4152      O4168   1.262       .  A
N4154      O4165   1.261       .  A
N4154      O4166   1.262       .  A
C4156      C4157   1.399       .  A
C4156      N4161   1.429       .  S
C4157      C4158   1.407       .  A
C4157      H4162   1.084       .  S
C4158      C4159   1.414       .  A
C4159      C4160   1.402       .  A
C4159      N4163   1.428       .  S
C4160      H4164   1.084       .  S
N4161      O4171   1.262       .  A
N4161      O4172   1.262       .  A
N4163      O4169   1.262       .  A
N4163      O4170   1.262       .  A
C4173      C4174   1.403   1_565  A
C4173      C4178   1.405       .  A
C4173      H4183   1.083       .  S
C4174      C4179   1.489       .  S
C4174      C4175   1.413       .  A
C4175      C4176   1.397       .  A
C4175      N4180   1.429       .  S
C4176      C4177   1.402       .  A
C4176      H4181   1.084       .  S
C4177      C4178   1.416   1_545  A
C4178      N4182   1.429       .  S
C4179      C4184   1.413       .  A
C4179      C4188   1.401       .  A
N4180      O4195   1.262       .  A
N4180      O4196   1.261       .  A
N4182      O4193   1.262       .  A
N4182      O4194   1.261       .  A
C4184      C4185   1.407       .  A
C4184      N4189   1.429       .  S
C4185      C4186   1.406       .  A
C4185      H4190   1.084       .  S
C4186      C4187   1.413   1_545  A
C4187      C4188   1.396   1_565  A
C4187      N4191   1.429       .  S
C4188      H4192   1.083   1_545  S
N4189      O4199   1.262       .  A
N4189      O4200   1.262       .  A
N4191      O4197   1.262       .  A
N4191      O4198   1.262   1_565  A
C4201      C4202   1.405       .  A
C4201      C4206   1.401       .  A
C4201      H4211   1.083       .  S
C4202      C4207   1.484       .  S
C4202      C4203   1.413   1_565  A
C4203      C4204   1.391   1_545  A
C4203      N4208   1.430       .  S
C4204      C4205   1.400       .  A
C4204      H4209   1.084   1_565  S
C4205      C4206   1.412       .  A
C4206      N4210   1.429       .  S
C4207      C4212   1.412       .  A
C4207      C4216   1.402       .  A
N4208      O4223   1.262       .  A
N4208      O4224   1.262       .  A
N4210      O4221   1.262       .  A
N4210      O4222   1.262       .  A
C4212      C4213   1.398       .  A
C4212      N4217   1.429       .  S
C4213      C4214   1.404       .  A
C4213      H4218   1.084       .  S
C4214      C4215   1.412       .  A
C4215      C4216   1.397       .  A
C4215      N4219   1.428       .  S
C4216      H4220   1.083       .  S
N4217      O4227   1.262       .  A
N4217      O4228   1.262       .  A
N4219      O4225   1.262       .  A
N4219      O4226   1.262   1_565  A
C4229      C4230   1.399       .  A
C4229      C4234   1.394       .  A
C4229      H4239   1.083       .  S
C4230      C4235   1.476       .  S
C4230      C4231   1.407       .  A
C4231      C4232   1.404       .  A
C4231      N4236   1.428       .  S
C4232      C4233   1.407       .  A
C4232      H4237   1.084       .  S
C4233      C4234   1.415       .  A
C4234      N4238   1.429   1_545  S
C4235      C4240   1.399       .  A
C4235      C4244   1.401       .  A
N4236      O4251   1.262       .  A
N4236      O4252   1.262       .  A
N4238      O4249   1.262       .  A
N4238      O4250   1.262       .  A
C4240      C4241   1.391       .  A
C4240      N4245   1.429       .  S
C4241      C4242   1.420       .  A
C4241      H4246   1.084       .  S
C4242      C4243   1.433       .  A
C4243      C4244   1.407       .  A
C4243      N4247   1.434       .  S
C4244      H4248   1.084       .  S
N4245      O4255   1.262       .  A
N4245      O4256   1.262       .  A
N4247      O4253   1.262       .  A
N4247      O4254   1.261       .  A
C4257      C4258   1.404       .  A
C4257      C4262   1.402       .  A
C4257      H4267   1.083       .  S
C4258      C4263   1.494       .  S
C4258      C4259   1.416       .  A
C4259      C4260   1.405       .  A
C4259      N4264   1.429       .  S
C4260      C4261   1.402       .  A
C4260      H4265   1.084       .  S
C4261      C4262   1.412       .  A
C4262      N4266   1.429   1_655  S
C4263      C4268   1.416       .  A
C4263      C4272   1.404       .  A
N4264      O4279   1.262       .  A
N4264      O4280   1.262       .  A
N4266      O4277   1.262       .  A
N4266      O4278   1.262       .  A
C4268      C4269   1.406       .  A
C4268      N4273   1.429       .  S
C4269      C4270   1.402       .  A
C4269      H4274   1.084       .  S
C4270      C4271   1.410       .  A
C4271      C4272   1.401       .  A
C4271      N4275   1.429       .  S
C4272      H4276   1.083       .  S
N4273      O4283   1.262       .  A
N4273      O4284   1.262       .  A
N4275      O4281   1.262       .  A
N4275      O4282   1.262       .  A
C4285      C4286   1.404       .  A
C4285      C4290   1.401       .  A
C4285      H4295   1.082       .  S
C4286      C4291   1.486       .  S
C4286      C4287   1.414       .  A
C4287      C4288   1.396       .  A
C4287      N4292   1.430   1_455  S
C4288      C4289   1.402       .  A
C4288      H4293   1.084   1_455  S
C4289      C4290   1.414       .  A
C4290      N4294   1.429       .  S
C4291      C4296   1.414       .  A
C4291      C4300   1.402   1_455  A
N4292      O4307   1.262       .  A
N4292      O4308   1.262       .  A
N4294      O4305   1.262       .  A
N4294      O4306   1.262       .  A
C4296      C4297   1.402       .  A
C4296      N4301   1.429       .  S
C4297      C4298   1.405       .  A
C4297      H4302   1.084       .  S
C4298      C4299   1.413   1_455  A
C4299      C4300   1.395       .  A
C4299      N4303   1.429       .  S
C4300      H4304   1.082       .  S
N4301      O4311   1.262       .  A
N4301      O4312   1.262       .  A
N4303      O4309   1.262       .  A
N4303      O4310   1.262       .  A
C4313      C4314   1.408       .  A
C4313      C4318   1.412       .  A
C4313      H4323   1.083       .  S
C4314      C4319   1.507       .  S
C4314      C4315   1.415       .  A
C4315      C4316   1.404       .  A
C4315      N4320   1.429       .  S
C4316      C4317   1.406       .  A
C4316      H4321   1.084       .  S
C4317      C4318   1.418       .  A
C4318      N4322   1.428       .  S
C4319      C4324   1.409       .  A
C4319      C4328   1.402       .  A
N4320      O4335   1.262       .  A
N4320      O4336   1.262       .  A
N4322      O4333   1.262       .  A
N4322      O4334   1.262       .  A
C4324      C4325   1.405       .  A
C4324      N4329   1.429       .  S
C4325      C4326   1.420       .  A
C4325      H4330   1.078       .  S
C4326      C4327   1.438       .  A
C4327      C4328   1.409       .  A
C4327      N4331   1.436       .  S
C4328      H4332   1.082       .  S
N4329      O4339   1.262       .  A
N4329      O4340   1.262       .  A
N4331      O4337   1.261       .  A
N4331      O4338   1.262       .  A
C4341      C4342   1.404       .  A
C4341      C4346   1.403       .  A
C4341      H4351   1.083       .  S
C4342      C4347   1.498       .  S
C4342      C4343   1.418       .  A
C4343      C4344   1.406       .  A
C4343      N4348   1.429       .  S
C4344      C4345   1.402       .  A
C4344      H4349   1.084       .  S
C4345      C4346   1.414       .  A
C4346      N4350   1.429       .  S
C4347      C4352   1.417       .  A
C4347      C4356   1.403       .  A
N4348      O4363   1.262       .  A
N4348      O4364   1.262       .  A
N4350      O4361   1.262       .  A
N4350      O4362   1.262       .  A
C4352      C4353   1.409       .  A
C4352      N4357   1.429       .  S
C4353      C4354   1.404       .  A
C4353      H4358   1.084       .  S
C4354      C4355   1.415       .  A
C4355      C4356   1.402       .  A
C4355      N4359   1.429       .  S
C4356      H4360   1.083       .  S
N4357      O4367   1.262       .  A
N4357      O4368   1.261       .  A
N4359      O4365   1.262       .  A
N4359      O4366   1.262       .  A
C4369      C4370   1.399       .  A
C4369      C4374   1.400       .  A
C4369      H4379   1.084       .  S
C4370      C4375   1.477       .  S
C4370      C4371   1.406       .  A
C4371      C4372   1.400       .  A
C4371      N4376   1.427       .  S
C4372      C4373   1.405       .  A
C4372      H4377   1.083       .  S
C4373      C4374   1.417       .  A
C4374      N4378   1.429       .  S
C4375      C4380   1.407       .  A
C4375      C4384   1.403       .  A
N4376      O4391   1.262       .  A
N4376      O4392   1.262       .  A
N4378      O4389   1.262       .  A
N4378      O4390   1.262       .  A
C4380      C4381   1.396       .  A
C4380      N4385   1.428       .  S
C4381      C4382   1.401       .  A
C4381      H4386   1.084       .  S
C4382      C4383   1.412       .  A
C4383      C4384   1.404       .  A
C4383      N4387   1.429       .  S
C4384      H4388   1.084       .  S
N4385      O4395   1.262       .  A
N4385      O4396   1.262       .  A
N4387      O4393   1.262       .  A
N4387      O4394   1.262       .  A
C4397      C4398   1.403       .  A
C4397      C4402   1.405       .  A
C4397      H4407   1.084       .  S
C4398      C4403   1.484       .  S
C4398      C4399   1.408       .  A
C4399      C4400   1.400       .  A
C4399      N4404   1.429       .  S
C4400      C4401   1.404       .  A
C4400      H4405   1.084       .  S
C4401      C4402   1.417       .  A
C4402      N4406   1.429       .  S
C4403      C4408   1.401       .  A
C4403      C4412   1.395       .  A
N4404      O4419   1.262       .  A
N4404      O4420   1.261       .  A
N4406      O4417   1.262       .  A
N4406      O4418   1.262       .  A
C4408      C4409   1.399       .  A
C4408      N4413   1.429       .  S
C4409      C4410   1.421       .  A
C4409      H4414   1.078       .  S
C4410      C4411   1.438       .  A
C4411      C4412   1.403       .  A
C4411      N4415   1.432       .  S
C4412      H4416   1.084       .  S
N4413      O4423   1.262       .  A
N4413      O4424   1.261       .  A
N4415      O4421   1.261       .  A
N4415      O4422   1.262       .  A
C4425      C4426   1.405       .  A
C4425      C4430   1.411       .  A
C4425      H4435   1.084       .  S
C4426      C4431   1.480       .  S
C4426      C4427   1.406       .  A
C4427      C4428   1.392       .  A
C4427      N4432   1.430       .  S
C4428      C4429   1.405       .  A
C4428      H4433   1.084       .  S
C4429      C4430   1.416       .  A
C4430      N4434   1.428       .  S
C4431      C4436   1.410       .  A
C4431      C4440   1.397       .  A
N4432      O4447   1.262       .  A
N4432      O4448   1.261       .  A
N4434      O4445   1.262       .  A
N4434      O4446   1.262       .  A
C4436      C4437   1.405       .  A
C4436      N4441   1.428       .  S
C4437      C4438   1.403       .  A
C4437      H4442   1.084       .  S
C4438      C4439   1.416       .  A
C4439      C4440   1.399       .  A
C4439      N4443   1.427       .  S
C4440      H4444   1.084       .  S
N4441      O4451   1.262       .  A
N4441      O4452   1.261       .  A
N4443      O4449   1.262       .  A
N4443      O4450   1.260       .  A
C4453      C4454   1.403       .  A
C4453      C4458   1.400       .  A
C4453      H4463   1.084       .  S
C4454      C4459   1.480       .  S
C4454      C4455   1.409       .  A
C4455      C4456   1.397       .  A
C4455      N4460   1.428       .  S
C4456      C4457   1.403       .  A
C4456      H4461   1.084       .  S
C4457      C4458   1.413       .  A
C4458      N4462   1.429       .  S
C4459      C4464   1.408       .  A
C4459      C4468   1.402       .  A
N4460      O4475   1.262       .  A
N4460      O4476   1.262       .  A
N4462      O4473   1.262       .  A
N4462      O4474   1.262       .  A
C4464      C4465   1.396       .  A
C4464      N4469   1.429       .  S
C4465      C4466   1.405       .  A
C4465      H4470   1.084       .  S
C4466      C4467   1.416       .  A
C4467      C4468   1.402       .  A
C4467      N4471   1.428       .  S
C4468      H4472   1.084       .  S
N4469      O4479   1.262       .  A
N4469      O4480   1.262       .  A
N4471      O4477   1.262       .  A
N4471      O4478   1.262       .  A
C4481      C4482   1.402       .  A
C4481      C4486   1.402       .  A
C4481      H4491   1.084       .  S
C4482      C4487   1.477       .  S
C4482      C4483   1.407       .  A
C4483      C4484   1.394       .  A
C4483      N4488   1.430       .  S
C4484      C4485   1.405       .  A
C4484      H4489   1.084       .  S
C4485      C4486   1.414       .  A
C4486      N4490   1.428       .  S
C4487      C4492   1.409       .  A
C4487      C4496   1.402       .  A
N4488      O4503   1.262       .  A
N4488      O4504   1.262       .  A
N4490      O4501   1.262       .  A
N4490      O4502   1.262       .  A
C4492      C4493   1.396       .  A
C4492      N4497   1.428       .  S
C4493      C4494   1.402       .  A
C4493      H4498   1.084       .  S
C4494      C4495   1.412       .  A
C4495      C4496   1.398       .  A
C4495      N4499   1.429       .  S
C4496      H4500   1.084       .  S
N4497      O4507   1.262       .  A
N4497      O4508   1.262       .  A
N4499      O4505   1.262       .  A
N4499      O4506   1.262       .  A
C4509      C4510   1.404       .  A
C4509      C4514   1.409       .  A
C4509      H4519   1.084       .  S
C4510      C4515   1.486       .  S
C4510      C4511   1.409       .  A
C4511      C4512   1.395       .  A
C4511      N4516   1.429       .  S
C4512      C4513   1.404       .  A
C4512      H4517   1.084       .  S
C4513      C4514   1.417       .  A
C4514      N4518   1.428       .  S
C4515      C4520   1.401       .  A
C4515      C4524   1.394       .  A
N4516      O4531   1.262       .  A
N4516      O4532   1.262       .  A
N4518      O4529   1.262       .  A
N4518      O4530   1.262       .  A
C4520      C4521   1.404       .  A
C4520      N4525   1.428       .  S
C4521      C4522   1.424       .  A
C4521      H4526   1.076       .  S
C4522      C4523   1.438       .  A
C4523      C4524   1.402       .  A
C4523      N4527   1.428       .  S
C4524      H4528   1.084       .  S
N4525      O4535   1.262       .  A
N4525      O4536   1.262       .  A
N4527      O4533   1.262       .  A
N4527      O4534   1.262       .  A
