geometry optimzed in LAMMPS
_audit_creation_date              2020-11-30 
_audit_creation_method            'lammps2cif' 
_symmetry_space_group_name_H-M    'P1' 
_symmetry_Int_Tables_number       1 
_symmetry_cell_setting            triclinic 
loop_ 
_symmetry_equiv_pos_as_xyz 
  x,y,z 
_cell_length_a                    38.9796408 
_cell_length_b                    38.83028200557837 
_cell_length_c                    40.2464339136768 
_cell_angle_alpha                 90.0911410796105 
_cell_angle_beta                  89.60927276807512 
_cell_angle_gamma                 86.73462910636202 
loop_ 
_atom_site_label 
_atom_site_type_symbol 
_atom_site_fract_x 
_atom_site_fract_y 
_atom_site_fract_z 
_atom_site_charge 
O1          O  0.99815438  0.40224465  0.44836967    -0.75700
O2          O  0.99407952  0.44506292  0.40955240    -0.54600
C3          C  0.99660560  0.41318480  0.41817820     0.78100
O4          O  0.39655960  0.00076945  0.06137694    -0.60300
O5          O  0.43971606  0.99692028  0.09948034    -0.53300
C6          C  0.41002134  0.49813981  0.09162171     0.70100
O7          O  0.39709526  0.00012778  0.44814232    -0.74800
O8          O  0.44002901  0.99746703  0.40924183    -0.55400
C9          C  0.40810219  0.99909531  0.41784919     0.76100
O10         O  0.00335991  0.40335987  0.05952048    -0.60000
O11         O  0.99642094  0.44642430  0.09802295    -0.53100
C12         C  0.50358547  0.41170954  0.09096163     0.72700
Zr13       Zr  0.99876483  0.42653499  0.50443415     2.54700
O14         O  0.45145627  0.38564141  0.50453216    -0.80500
O15         O  0.04212030  0.38125899  0.00322038    -0.93900
Zr16       Zr  0.42120680  0.99727366  0.50414623     2.64700
O17         O  0.38263844  0.44959937  0.50899997    -0.98900
O18         O  0.37222964  0.04121753  0.00406473    -0.81000
O19         O  0.45823315  0.46022766  0.47187986    -0.84300
O20         O  0.46094243  0.45967063  0.03700074    -2.19000
O21         O  0.08944432  0.49822628  0.05761660    -0.67700
O22         O  0.04676462  0.49794777  0.09674060    -0.52300
C23         C  0.07854636  0.49806458  0.08789860     0.71100
O24         O  0.49463284  0.09384843  0.44869006    -0.60600
O25         O  0.49119180  0.05167658  0.40945048    -0.52600
C26         C  0.99285410  0.08337733  0.41660957     0.72900
O27         O  0.49493045  0.09255792  0.06143354    -0.72000
O28         O  0.49243942  0.04956829  0.09985068    -0.50700
C29         C  0.49509915  0.08129039  0.09158501     0.74300
O30         O  0.08878102  0.49997883  0.44702791    -0.67300
O31         O  0.04573485  0.49713007  0.40901804    -0.54500
C32         C  0.07707413  0.99937386  0.41671598     0.72600
Zr33       Zr  0.06517408  0.49832254  0.00183432     2.77500
O34         O  0.10874489  0.03961515  0.50697497    -0.98100
O35         O  0.11560292  0.46013615  0.50466895    -0.78900
Zr36       Zr  0.48748607  0.06979076  0.00508018     2.70100
O37         O  0.02788412  0.11942514  0.00556460    -0.80200
O38         O  0.43516959  0.10778800  0.50394094    -0.99200
Zr39       Zr  0.99189568  0.99830790  0.43907709     2.21500
Zr40       Zr  0.49505358  0.49684767  0.06841336     2.11100
O41         O  0.02783345  0.03514764  0.03635825    -2.47900
O42         O  0.02687373  0.03474312  0.47049236    -0.79900
O43         O  0.03155483  0.46229651  0.03471696    -0.72100
O44         O  0.45398032  0.03491265  0.47210640    -2.33100
O45         O  0.03238423  0.46266706  0.47183563    -2.29300
O46         O  0.45317915  0.03388351  0.03738498    -0.73900
H47         H  0.44802562  0.44530522  0.05144378     0.78100
H48         H  0.43930101  0.04906342  0.45774931     0.79200
H49         H  0.04192104  0.04851927  0.05055398     0.81400
H50         H  0.04728717  0.44856385  0.45739424     0.79000
H51         H  0.37427954  0.05270603  0.52447331     0.42100
H52         H  0.43800750  0.12159495  0.02783518     0.41000
H53         H  0.01514811  0.13723627  0.49385533     0.40700
H54         H  0.09902021  0.05701439  0.02615761     0.38600
H55         H  0.12883743  0.46112541  0.98784648     0.41800
H56         H  0.06839000  0.40010059  0.50821592     0.36500
H57         H  0.44826532  0.37988524  0.52826384     0.42700
H58         H  0.38307631  0.44148504  0.02940962     0.39100
H59         H  0.12740553  0.03166294  0.01057742     0.44000
H60         H  0.03505670  0.36394050  0.98693305     0.42700
H61         H  0.38105222  0.44037430  0.48615584     0.42900
H62         H  0.43611571  0.12214391  0.98899908     0.43200
N63         N  0.50980008  0.24717238  0.30540879    -0.37000
N64         N  0.51192417  0.29912401  0.25403748    -0.57500
N65         N  0.51427124  0.24550584  0.20352520    -0.37000
N66         N  0.50836931  0.19384193  0.25499737    -0.57500
C67         C  0.50149626  0.27621795  0.32294245     0.26600
C68         C  0.49938897  0.22033289  0.32351352     0.26600
C69         C  0.50614194  0.27407724  0.18531961     0.26600
C70         C  0.50476661  0.21801787  0.18576960     0.26600
C71         C  0.51860116  0.31849999  0.28085652     0.35200
C72         C  0.52030589  0.31770273  0.22716231     0.35200
C73         C  0.51375356  0.17418210  0.28234746     0.35200
C74         C  0.51623847  0.17327526  0.22858528     0.35200
C75         C  0.48562720  0.26777467  0.35254881    -0.22300
C76         C  0.48424531  0.23247856  0.35288632    -0.22300
C77         C  0.49135281  0.26465758  0.15567632    -0.22300
C78         C  0.49041188  0.22929798  0.15598504    -0.22300
C79         C  0.53166276  0.34937347  0.27104059    -0.23300
C80         C  0.53272804  0.34887425  0.23690817    -0.23300
C81         C  0.52550105  0.14110282  0.27330443    -0.23300
C82         C  0.52709487  0.14053589  0.23919922    -0.23300
C83         C  0.50989640  0.30982757  0.31373494    -0.18700
C84         C  0.50541624  0.18512905  0.31506411    -0.18700
C85         C  0.51034586  0.18300434  0.19519529    -0.18700
C86         C  0.51337423  0.30818921  0.19415942    -0.18700
H87         H  0.47615227  0.28519438  0.37198293     0.14300
H88         H  0.47347763  0.21749236  0.37263328     0.14300
H89         H  0.48214777  0.28149637  0.13586015     0.14300
H90         H  0.48021716  0.21372717  0.13646611     0.14300
H91         H  0.53891717  0.37034354  0.28678328     0.12500
H92         H  0.54094107  0.36939400  0.22107269     0.12500
H93         H  0.53185758  0.11951278  0.28953342     0.12500
H94         H  0.53482154  0.11840877  0.22396955     0.12500
H95         H  0.52524090  0.24545692  0.28421394     0.25800
H96         H  0.52872589  0.24453026  0.22520240     0.25800
N97         N  0.24112045  0.49795139  0.30331772    -0.37000
N98         N  0.18914959  0.49799360  0.25163182    -0.57500
N99         N  0.24276550  0.50092588  0.20210189    -0.37000
N100        N  0.29483891  0.49723628  0.25397846    -0.57500
C101        C  0.21306471  0.48839836  0.32010632     0.26600
C102        C  0.26899912  0.48753744  0.32139737     0.26600
C103        C  0.21584634  0.49189144  0.18353997     0.26600
C104        C  0.27175772  0.49195558  0.18476698     0.26600
C105        C  0.16918456  0.50582547  0.27844034     0.35200
C106        C  0.17013860  0.50670179  0.22467220     0.35200
C107        C  0.31293399  0.50460290  0.28138499     0.35200
C108        C  0.31371809  0.50664150  0.22760007     0.35200
C109        C  0.22316537  0.47125000  0.34892671    -0.22300
C110        C  0.25851136  0.47057397  0.34967276    -0.22300
C111        C  0.22791920  0.47658495  0.15423857    -0.22300
C112        C  0.26322899  0.47668371  0.15498735    -0.22300
C113        C  0.13741119  0.51989802  0.26854293    -0.23300
C114        C  0.13803221  0.52050577  0.23439118    -0.23300
C115        C  0.34322483  0.51926745  0.27237707    -0.23300
C116        C  0.34376463  0.52046993  0.23824066    -0.23300
C117        C  0.17868850  0.49766569  0.31140451    -0.18700
C118        C  0.30321213  0.49564528  0.31403949    -0.18700
C119        C  0.30534813  0.49979676  0.19423417    -0.18700
C120        C  0.18080239  0.49947951  0.19164482    -0.18700
H121        H  0.20673554  0.46076774  0.36771207     0.14300
H122        H  0.27458525  0.45937417  0.36911469     0.14300
H123        H  0.21288742  0.46665770  0.13423775     0.14300
H124        H  0.28061043  0.46690635  0.13565250     0.14300
H125        H  0.11592967  0.52848611  0.28422554     0.12500
H126        H  0.11713859  0.52974375  0.21858504     0.12500
H127        H  0.36300130  0.52795251  0.28860811     0.12500
H128        H  0.36410483  0.53008218  0.22301750     0.12500
H129        H  0.24090265  0.51454138  0.28298998     0.25800
H130        H  0.24136639  0.51607587  0.22350307     0.28000
C131        C  0.09999328  0.48022079  0.14405718    -0.13700
C132        C  0.10454976  0.49834277  0.11435855     0.08400
C133        C  0.13422286  0.51679521  0.11008101    -0.13700
C134        C  0.15868730  0.51752241  0.13527874    -0.13700
C135        C  0.15445252  0.49900816  0.16486965     0.08400
C136        C  0.12497729  0.48008489  0.16883492    -0.13700
H137        H  0.07743977  0.46559311  0.14780622     0.12400
H138        H  0.13817193  0.53118664  0.08747015     0.12400
H139        H  0.18098636  0.53254863  0.13169505     0.12400
H140        H  0.12128312  0.46522860  0.19119640     0.12400
C141        C  0.13189200  0.01854025  0.39265461    -0.13700
C142        C  0.10299072  0.49844442  0.38981439     0.08400
C143        C  0.09867024  0.47873870  0.36098777    -0.13700
C144        C  0.12315825  0.47846922  0.33540749    -0.13700
C145        C  0.15194515  0.49846341  0.33798715     0.08400
C146        C  0.15710958  0.01692650  0.36783362    -0.13700
H147        H  0.13460184  0.03571239  0.41359675     0.12400
H148        H  0.07669347  0.46307691  0.35854494     0.12400
H149        H  0.11981750  0.46250091  0.31370733     0.12400
H150        H  0.17877334  0.03307504  0.36979771     0.12400
C151        C  0.38918449  0.47974957  0.14742614    -0.13700
C152        C  0.38391636  0.49920602  0.11834631     0.08400
C153        C  0.34978304  0.01771141  0.11392062    -0.13700
C154        C  0.32496818  0.01797577  0.13909858    -0.13700
C155        C  0.33280755  0.49997656  0.16830488     0.08400
C156        C  0.36365273  0.47980357  0.17202109    -0.13700
H157        H  0.41267554  0.46388290  0.15074372     0.12400
H158        H  0.34384140  0.03126172  0.09098402     0.12400
H159        H  0.30039506  0.03178494  0.13520715     0.12400
H160        H  0.36784182  0.46393967  0.19389150     0.12400
C161        C  0.38692870  0.47799564  0.36152778    -0.13700
C162        C  0.37954360  0.49450903  0.39206024     0.08400
C163        C  0.34938617  0.01626227  0.39635873    -0.13700
C164        C  0.32451361  0.01646235  0.37144158    -0.13700
C165        C  0.32943032  0.49458750  0.34122841     0.08400
C166        C  0.36197709  0.47754203  0.33663151    -0.13700
H167        H  0.41188938  0.46505763  0.35706067     0.12400
H168        H  0.34317589  0.02929423  0.41962674     0.12400
H169        H  0.29973884  0.02977915  0.37593047     0.12400
H170        H  0.36821074  0.46409946  0.31358516     0.12400
C171        C  0.02836690  0.15974742  0.13840247    -0.13700
C172        C  0.50779469  0.15560600  0.16934110     0.08400
C173        C  0.48509090  0.12903538  0.17359233    -0.13700
C174        C  0.48142038  0.10441174  0.14860874    -0.13700
C175        C  0.49959143  0.10652991  0.11850521     0.08400
C176        C  0.02313013  0.13594015  0.11310672    -0.13700
H177        H  0.04563878  0.18017072  0.13398852     0.12400
H178        H  0.46981961  0.12766396  0.19608468     0.12400
H179        H  0.46366286  0.08429274  0.15240735     0.12400
H180        H  0.03669673  0.13826850  0.08970834     0.12400
C181        C  0.01686913  0.13728881  0.39515795    -0.13700
C182        C  0.49641569  0.10919239  0.39199990     0.08400
C183        C  0.47729787  0.10707470  0.36269936    -0.13700
C184        C  0.47987696  0.13194553  0.33785621    -0.13700
C185        C  0.50232228  0.15874351  0.34155031     0.08400
C186        C  0.02050575  0.16188243  0.37027678    -0.13700
H187        H  0.03107825  0.13957023  0.41801973     0.12400
H188        H  0.46000644  0.08650328  0.35927823     0.12400
H189        H  0.46446820  0.13026451  0.31567831     0.12400
H190        H  0.03737460  0.18267835  0.37438455     0.12400
C191        C  0.53051519  0.35734228  0.11487749    -0.13700
C192        C  0.50671480  0.38576379  0.11770549     0.08400
C193        C  0.48561987  0.38897300  0.14610454    -0.13700
C194        C  0.48784444  0.36381988  0.17095339    -0.13700
C195        C  0.51162766  0.33537815  0.16809693     0.08400
C196        C  0.53313970  0.33249872  0.14000050    -0.13700
H197        H  0.04344302  0.35598502  0.09100419     0.12400
H198        H  0.46693519  0.41056599  0.14872491     0.12400
H199        H  0.47085854  0.36637133  0.19233928     0.12400
H200        H  0.55169751  0.31080234  0.13741618     0.12400
C201        C  0.48167780  0.39053325  0.36188616    -0.13700
C202        C  0.50188626  0.38672423  0.39054461     0.08400
C203        C  0.02110337  0.35769392  0.39474094    -0.13700
C204        C  0.52878315  0.33381077  0.36786136    -0.13700
C205        C  0.50808583  0.33718978  0.33954533     0.08400
C206        C  0.48454416  0.36574328  0.33666989    -0.13700
H207        H  0.46325173  0.41231147  0.35932122     0.12400
H208        H  0.03624533  0.35358739  0.41700102     0.12400
H209        H  0.04210796  0.31116700  0.37187207     0.12400
H210        H  0.46817969  0.36857018  0.31508572     0.12400
O211        O  0.99734986  0.40235923  0.94732122    -0.75700
O212        O  0.99279475  0.44499702  0.90835378    -0.54600
C213        C  0.99533974  0.41313385  0.91710243     0.78100
O214        O  0.39721322  0.99867937  0.56036264    -0.60300
O215        O  0.43970786  0.99672456  0.59916475    -0.53300
C216        C  0.40846489  0.49949021  0.59027795     0.70100
O217        O  0.39453372  0.99857996  0.94886250    -0.74800
O218        O  0.43716276  0.99614122  0.90965218    -0.55400
C219        C  0.40528519  0.99730989  0.91844587     0.76100
O220        O  0.00471445  0.40256842  0.56026824    -0.60000
O221        O  0.99762716  0.44555309  0.59885288    -0.53100
C222        C  0.50325528  0.41291171  0.59059536     0.72700
Zr223      Zr  0.99640774  0.42680071  0.00334714     2.54700
O224        O  0.45529597  0.38370484  0.00603669    -0.80500
O225        O  0.04887858  0.38603813  0.50242847    -0.93900
Zr226      Zr  0.41954946  0.99745677  0.00480864     2.64700
O227        O  0.38193063  0.45071074  0.00650230    -0.98900
O228        O  0.37101409  0.03763969  0.50500987    -0.81000
O229        O  0.46040447  0.45933851  0.97281904    -0.84300
O230        O  0.45864607  0.46037768  0.53623279    -2.19000
O231        O  0.08937815  0.50089023  0.55978141    -0.67700
O232        O  0.04678401  0.49872834  0.59884851    -0.52300
C233        C  0.07854929  0.50002243  0.59013455     0.71100
O234        O  0.49220436  0.09341773  0.94899656    -0.60600
O235        O  0.48822277  0.05128269  0.90977001    -0.52600
C236        C  0.99313226  0.08393542  0.91836610     0.72900
O237        O  0.49233884  0.09411732  0.56088652    -0.72000
O238        O  0.49077092  0.05114904  0.59946463    -0.50700
C239        C  0.49222346  0.08297372  0.59102684     0.74300
O240        O  0.08802096  0.50176004  0.94556267    -0.67300
O241        O  0.04558500  0.49733773  0.90728785    -0.54500
C242        C  0.07579302  0.00051307  0.91725390     0.72600
Zr243      Zr  0.06536326  0.50034991  0.50357378     2.77500
O244        O  0.10499067  0.04378014  0.00566600    -0.98100
O245        O  0.10913726  0.45125954  0.99936568    -0.78900
Zr246      Zr  0.48776072  0.07076059  0.50469671     2.70100
O247        O  0.02834565  0.11695710  0.50310120    -0.80200
O248        O  0.43483078  0.10654093  0.00833749    -0.99200
Zr249      Zr  0.99109373  0.99925991  0.94107221     2.21500
Zr250      Zr  0.49324131  0.49757618  0.56691549     2.11100
O251        O  0.02679007  0.03480866  0.53489598    -2.47900
O252        O  0.02685163  0.03535330  0.97197339    -0.79900
O253        O  0.03260066  0.46308428  0.53613436    -0.72100
O254        O  0.45261177  0.03465607  0.97259926    -2.33100
O255        O  0.03123345  0.46162693  0.97025911    -2.29300
O256        O  0.45365018  0.03449604  0.53696146    -0.73900
H257        H  0.44575289  0.44619013  0.55086468     0.78100
H258        H  0.43781556  0.04902009  0.95853308     0.79200
H259        H  0.04034437  0.04876477  0.54907094     0.81400
H260        H  0.04588031  0.44730528  0.95577817     0.79000
H261        H  0.35374585  0.03138094  0.01741537     0.42100
H262        H  0.41648428  0.09194060  0.50066842     0.41000
H263        H  0.05016991  0.10889187  0.01321837     0.40700
H264        H  0.12032296  0.03982423  0.48502734     0.38600
H265        H  0.11172674  0.44349192  0.48660965     0.41800
H266        H  0.06197303  0.39182952  0.99266486     0.36500
H267        H  0.46751330  0.36131741  0.01116796     0.42700
H268        H  0.35966044  0.46090427  0.51353508     0.39100
H269        H  0.09587367  0.06229683  0.50851054     0.44000
H270        H  0.05260914  0.38027494  0.47866986     0.42700
H271        H  0.35907518  0.46313704  0.00523910     0.42900
H272        H  0.43211624  0.11596879  0.52713938     0.43200
N273        N  0.50563628  0.24640893  0.80511768    -0.37000
N274        N  0.50966276  0.29903993  0.75405807    -0.57500
N275        N  0.50914141  0.24649563  0.70361702    -0.37000
N276        N  0.50172860  0.19414294  0.75484346    -0.57500
C277        C  0.49744541  0.27564614  0.82233643     0.26600
C278        C  0.49382222  0.21992382  0.82281189     0.26600
C279        C  0.50232815  0.27546168  0.68554787     0.26600
C280        C  0.49779142  0.21973933  0.68607538     0.26600
C281        C  0.51861558  0.31675412  0.78124813     0.35200
C282        C  0.52019748  0.31694271  0.72746203     0.35200
C283        C  0.50776174  0.17407113  0.78181122     0.35200
C284        C  0.50923239  0.17410455  0.72805105     0.35200
C285        C  0.47968873  0.26772126  0.85109011    -0.22300
C286        C  0.47754669  0.23244630  0.85145582    -0.22300
C287        C  0.48617891  0.26702819  0.65628994    -0.22300
C288        C  0.48332299  0.23183674  0.65661765    -0.22300
C289        C  0.53544147  0.34576877  0.77192915    -0.23300
C290        C  0.53636129  0.34592891  0.73774877    -0.23300
C291        C  0.51955696  0.14121083  0.77217949    -0.23300
C292        C  0.52049010  0.14122558  0.73800992    -0.23300
C293        C  0.50851987  0.30860138  0.81395213    -0.18700
C294        C  0.49987860  0.18470906  0.81465714    -0.18700
C295        C  0.50281490  0.18455677  0.69497269    -0.18700
C296        C  0.51221076  0.30881487  0.69429686    -0.18700
H297        H  0.46985653  0.28540792  0.87014773     0.14300
H298        H  0.46574280  0.21768002  0.87077472     0.14300
H299        H  0.47749638  0.28434008  0.63664741     0.14300
H300        H  0.47214797  0.21683986  0.63720694     0.14300
H301        H  0.54533014  0.36516707  0.78803467     0.12500
H302        H  0.54709098  0.36542888  0.72225435     0.12500
H303        H  0.52625432  0.11941323  0.78804786     0.12500
H304        H  0.52804255  0.11940400  0.72231370     0.12500
H305        H  0.52217062  0.24425436  0.78468316     0.25800
H306        H  0.52423524  0.24449714  0.72486379     0.25800
N307        N  0.24456718  0.49627610  0.80466844    -0.37000
N308        N  0.19174182  0.49733732  0.75319940    -0.57500
N309        N  0.24454298  0.50051266  0.70334923    -0.37000
N310        N  0.29762997  0.49519908  0.75484406    -0.57500
C311        C  0.21654364  0.48757858  0.82202123     0.26600
C312        C  0.27250016  0.48684242  0.82304930     0.26600
C313        C  0.21719098  0.49253535  0.68479178     0.26600
C314        C  0.27314448  0.49119549  0.68564258     0.26600
C315        C  0.17275014  0.50608779  0.78040719     0.35200
C316        C  0.17270002  0.50766806  0.72668031     0.35200
C317        C  0.31695624  0.50069101  0.78192320     0.35200
C318        C  0.31687851  0.50296528  0.72817469     0.35200
C319        C  0.22683629  0.47187586  0.85156954    -0.22300
C320        C  0.26217853  0.47166322  0.85231829    -0.22300
C321        C  0.22861468  0.47758228  0.65513490    -0.22300
C322        C  0.26394446  0.47686964  0.65560853    -0.22300
C323        C  0.14172584  0.52244764  0.77114002    -0.23300
C324        C  0.14167343  0.52336519  0.73703861    -0.23300
C325        C  0.34867017  0.51190209  0.77244434    -0.23300
C326        C  0.34858493  0.51347975  0.73835771    -0.23300
C327        C  0.18212227  0.49689423  0.81320793    -0.18700
C328        C  0.30675214  0.49383950  0.81488638    -0.18700
C329        C  0.30709514  0.49785892  0.69484995    -0.18700
C330        C  0.18237497  0.50067073  0.69338605    -0.18700
H331        H  0.21056356  0.46229576  0.87096396     0.14300
H332        H  0.27840137  0.46180511  0.87227259     0.14300
H333        H  0.21316942  0.46838056  0.63509802     0.14300
H334        H  0.28093806  0.46711593  0.63595032     0.14300
H335        H  0.12115614  0.53249533  0.78722645     0.12500
H336        H  0.12113664  0.53424078  0.72166747     0.12500
H337        H  0.36966858  0.51826889  0.78836161     0.12500
H338        H  0.36959666  0.52125069  0.72289693     0.12500
H339        H  0.24429252  0.51186484  0.78365037     0.25800
H340        H  0.24379580  0.51523343  0.72502410     0.28000
C341        C  0.09977891  0.48369133  0.64711750    -0.13700
C342        C  0.10461934  0.50073456  0.61680994     0.08400
C343        C  0.13483101  0.51827828  0.61204170    -0.13700
C344        C  0.15962606  0.51883625  0.63703259    -0.13700
C345        C  0.15529289  0.50103762  0.66704256     0.08400
C346        C  0.12505171  0.48340895  0.67173267    -0.13700
H347        H  0.07683365  0.46982057  0.65143787     0.12400
H348        H  0.13909560  0.53194810  0.58907692     0.12400
H349        H  0.18236851  0.53305249  0.63285741     0.12400
H350        H  0.12108099  0.46919625  0.69443723     0.12400
C351        C  0.13116725  0.01909558  0.89375020    -0.13700
C352        C  0.10325342  0.50003592  0.88883093     0.08400
C353        C  0.09852065  0.48241980  0.85886722    -0.13700
C354        C  0.12437250  0.48078724  0.83459756    -0.13700
C355        C  0.15492951  0.49766969  0.83942287     0.08400
C356        C  0.15561224  0.01908135  0.86825085    -0.13700
H357        H  0.13546506  0.03356481  0.91622911     0.12400
H358        H  0.07528101  0.46908100  0.85462271     0.12400
H359        H  0.12055374  0.46635602  0.81199686     0.12400
H360        H  0.17826215  0.03362840  0.87145056     0.12400
C361        C  0.38825139  0.47764652  0.64457678    -0.13700
C362        C  0.38298661  0.49963883  0.61724140     0.08400
C363        C  0.34932653  0.01441759  0.61253053    -0.13700
C364        C  0.32430110  0.01419365  0.63750326    -0.13700
C365        C  0.33358134  0.49867167  0.66825543     0.08400
C366        C  0.36346919  0.47679545  0.66967454    -0.13700
H367        H  0.41116337  0.46058297  0.64611178     0.12400
H368        H  0.34361394  0.02850193  0.58983669     0.12400
H369        H  0.29989213  0.02833517  0.63369329     0.12400
H370        H  0.36754548  0.45907357  0.69021190     0.12400
C371        C  0.38654873  0.47130428  0.86615053    -0.13700
C372        C  0.38245057  0.49481408  0.89263064     0.08400
C373        C  0.34732975  0.01597725  0.89556553    -0.13700
C374        C  0.32282862  0.01644191  0.87019252    -0.13700
C375        C  0.33279762  0.49385612  0.84188499     0.08400
C376        C  0.36175981  0.47059791  0.84116277    -0.13700
H377        H  0.40872734  0.45320186  0.86505153     0.12400
H378        H  0.34165759  0.03067767  0.91802372     0.12400
H379        H  0.29882340  0.03152281  0.87361874     0.12400
H380        H  0.36522361  0.45205060  0.82112432     0.12400
C381        C  0.01873552  0.16161103  0.63652612    -0.13700
C382        C  0.50051109  0.15782412  0.66865673     0.08400
C383        C  0.47767394  0.13128313  0.67203795    -0.13700
C384        C  0.47520304  0.10659397  0.64695009    -0.13700
C385        C  0.49486937  0.10861718  0.61775333     0.08400
C386        C  0.01470999  0.13774995  0.61104442    -0.13700
H387        H  0.03530877  0.18268238  0.63241938     0.12400
H388        H  0.46167336  0.12980602  0.69404089     0.12400
H389        H  0.45749453  0.08631063  0.65004289     0.12400
H390        H  0.02841386  0.14078801  0.58782164     0.12400
C391        C  0.01599631  0.13778316  0.89520868    -0.13700
C392        C  0.49257602  0.10896874  0.89221538     0.08400
C393        C  0.47255655  0.10697276  0.86345945    -0.13700
C394        C  0.47467743  0.13168996  0.83835719    -0.13700
C395        C  0.49734417  0.15838731  0.84132378     0.08400
C396        C  0.01910749  0.16146411  0.86940838    -0.13700
H397        H  0.02997282  0.14135228  0.91801010     0.12400
H398        H  0.45504133  0.08650788  0.86059451     0.12400
H399        H  0.45870268  0.12999173  0.81656718     0.12400
H400        H  0.03520476  0.18300233  0.87286743     0.12400
C401        C  0.52728570  0.35618683  0.61303794    -0.13700
C402        C  0.50729304  0.38713612  0.61774689     0.08400
C403        C  0.49050607  0.39292252  0.64846247    -0.13700
C404        C  0.49255025  0.36776536  0.67338539    -0.13700
C405        C  0.51195034  0.33650814  0.66843604     0.08400
C406        C  0.52982969  0.33128329  0.63822074    -0.13700
H407        H  0.03970024  0.35186823  0.59008643     0.12400
H408        H  0.47486057  0.41646891  0.65283083     0.12400
H409        H  0.47835965  0.37239559  0.69634337     0.12400
H410        H  0.54520847  0.30756575  0.63389342     0.12400
C411        C  0.48917090  0.39252906  0.86054166    -0.13700
C412        C  0.50490585  0.38552345  0.89129908     0.08400
C413        C  0.01756009  0.35659682  0.89386546    -0.13700
C414        C  0.52505811  0.32904268  0.87056082    -0.13700
C415        C  0.50841257  0.33566277  0.84018840     0.08400
C416        C  0.49059208  0.36768956  0.83536749    -0.13700
H417        H  0.47493799  0.41687490  0.85626536     0.12400
H418        H  0.03334175  0.35240284  0.91569652     0.12400
H419        H  0.03597607  0.30886033  0.87145524     0.12400
H420        H  0.47732375  0.37324887  0.81226341     0.12400
O421        O  0.99787841  0.90213517  0.44641280    -0.75700
O422        O  0.99357869  0.94502198  0.40765996    -0.54600
C423        C  0.99646412  0.91310304  0.41621492     0.78100
O424        O  0.39900216  0.49941807  0.06152947    -0.60300
O425        O  0.44187949  0.49601752  0.09998194    -0.53300
C426        C  0.40781216  0.99936072  0.09139391     0.70100
O427        O  0.39535211  0.49607338  0.44888614    -0.74800
O428        O  0.43774057  0.49536493  0.40950774    -0.55400
C429        C  0.40594257  0.49527248  0.41847377     0.76100
O430        O  0.00025834  0.90269291  0.05986772    -0.60000
O431        O  0.99490226  0.94530879  0.09900105    -0.53100
C432        C  0.50327316  0.91215683  0.09006492     0.72700
Zr433      Zr  0.99677088  0.92580118  0.50280073     2.54700
O434        O  0.45412363  0.88420701  0.50195093    -0.80500
O435        O  0.04200554  0.88239020  0.00119150    -0.93900
Zr436      Zr  0.42065427  0.49705795  0.50434995     2.64700
O437        O  0.38511154  0.94813473  0.50295239    -0.98900
O438        O  0.37696919  0.54156198  0.00433521    -0.81000
O439        O  0.45923423  0.96084069  0.47169389    -0.84300
O440        O  0.45740581  0.96029665  0.03648118    -2.19000
O441        O  0.08929445  0.99638702  0.05926458    -0.67700
O442        O  0.04678590  0.99517276  0.09847019    -0.52300
C443        C  0.07857750  0.99525497  0.08960024     0.71100
O444        O  0.49115689  0.59346334  0.44712879    -0.60600
O445        O  0.48946012  0.55082805  0.40818321    -0.52600
C446        C  0.99197492  0.58332910  0.41743205     0.72900
O447        O  0.49188007  0.59331222  0.06062254    -0.72000
O448        O  0.49246905  0.55056947  0.09961286    -0.50700
C449        C  0.49265690  0.58243229  0.09084158     0.74300
O450        O  0.08778788  0.00202896  0.44671388    -0.67300
O451        O  0.04556800  0.99666971  0.40828351    -0.54500
C452        C  0.07751080  0.49848646  0.41703905     0.72600
Zr453      Zr  0.06444209  0.99830695  0.00352884     2.77500
O454        O  0.09917109  0.55115057  0.50130664    -0.98100
O455        O  0.10537828  0.94837588  0.50112356    -0.78900
Zr456      Zr  0.48899718  0.56939000  0.00466303     2.70100
O457        O  0.02576958  0.62104757  0.99781976    -0.80200
O458        O  0.43931984  0.61280954  0.50471809    -0.99200
Zr459      Zr  0.99259873  0.49843295  0.44057411     2.21500
Zr460      Zr  0.49256237  0.99678614  0.06759175     2.11100
O461        O  0.02842032  0.53567380  0.03424508    -2.47900
O462        O  0.02703803  0.53573593  0.47130217    -0.79900
O463        O  0.03083549  0.96166683  0.03589046    -0.72100
O464        O  0.45307141  0.53456684  0.47176391    -2.33100
O465        O  0.03089237  0.96165110  0.47030677    -2.29300
O466        O  0.45556239  0.53311643  0.03752727    -0.73900
H467        H  0.44451304  0.94612211  0.05112242     0.78100
H468        H  0.43806270  0.54852957  0.45753729     0.79200
H469        H  0.04242620  0.54934649  0.04824546     0.81400
H470        H  0.04580802  0.94759750  0.45582919     0.79000
H471        H  0.38233219  0.56142614  0.49830131     0.42100
H472        H  0.44363577  0.62824465  0.01719442     0.41000
H473        H  0.01733348  0.63668628  0.51509281     0.40700
H474        H  0.09834560  0.56005712  0.98689430     0.38600
H475        H  0.13114221  0.96466490  0.99815918     0.41800
H476        H  0.05305217  0.88204470  0.47799517     0.36500
H477        H  0.44651699  0.88177073  0.52530710     0.42700
H478        H  0.38751350  0.93605530  0.98653437     0.39100
H479        H  0.10583386  0.55276775  0.02441645     0.44000
H480        H  0.05626575  0.88875715  0.98194095     0.42700
H481        H  0.36141984  0.95840737  0.50564583     0.42900
H482        H  0.43551398  0.61624885  0.98107444     0.43200
N483        N  0.50922525  0.74717967  0.30413596    -0.37000
N484        N  0.51585295  0.79929469  0.25344614    -0.57500
N485        N  0.51391987  0.74692319  0.20236353    -0.37000
N486        N  0.50367051  0.69507906  0.25325824    -0.57500
C487        C  0.50184541  0.77656414  0.32151222     0.26600
C488        C  0.49598525  0.72102643  0.32132124     0.26600
C489        C  0.50759637  0.77614547  0.18461996     0.26600
C490        C  0.50193692  0.72063693  0.18454291     0.26600
C491        C  0.52397106  0.81745238  0.28065889     0.35200
C492        C  0.52606289  0.81735966  0.22684907     0.35200
C493        C  0.50969155  0.67507311  0.28028716     0.35200
C494        C  0.51171744  0.67505758  0.22653136     0.35200
C495        C  0.48331933  0.76908224  0.34989264    -0.22300
C496        C  0.47951204  0.73403632  0.34970923    -0.22300
C497        C  0.49117144  0.76830057  0.15529203    -0.22300
C498        C  0.48771562  0.73325602  0.15520626    -0.22300
C499        C  0.54003873  0.84692603  0.27137499    -0.23300
C500        C  0.54137366  0.84686425  0.23719594    -0.23300
C501        C  0.52226975  0.64242263  0.27067008    -0.23300
C502        C  0.52335319  0.64236479  0.23653928    -0.23300
C503        C  0.51340701  0.80942248  0.31325693    -0.18700
C504        C  0.50124530  0.68558683  0.31313609    -0.18700
C505        C  0.50567410  0.68539424  0.19339551    -0.18700
C506        C  0.51788634  0.80927055  0.19367978    -0.18700
H507        H  0.47370861  0.78695031  0.36889203     0.14300
H508        H  0.46644647  0.71974705  0.36855832     0.14300
H509        H  0.48239505  0.78592005  0.13593859     0.14300
H510        H  0.47594189  0.71877720  0.13577810     0.14300
H511        H  0.54897312  0.86683331  0.28748547     0.12500
H512        H  0.55156347  0.86670266  0.22173481     0.12500
H513        H  0.52964284  0.62079375  0.28649471     0.12500
H514        H  0.53154696  0.62070328  0.22088917     0.12500
H515        H  0.52594100  0.74451828  0.28387001     0.25800
H516        H  0.52879792  0.74446225  0.22372793     0.25800
N517        N  0.24261430  0.99715715  0.30493920    -0.37000
N518        N  0.19001204  0.99301245  0.25384333    -0.57500
N519        N  0.24245383  0.99772667  0.20390419    -0.37000
N520        N  0.29517163  0.99837977  0.25498823    -0.57500
C521        C  0.21546709  0.98648756  0.32233922     0.26600
C522        C  0.27115089  0.98903578  0.32293782     0.26600
C523        C  0.21587980  0.98680416  0.18598600     0.26600
C524        C  0.27158110  0.98916265  0.18666933     0.26600
C525        C  0.17039886  0.00086366  0.28085063     0.35200
C526        C  0.17028729  0.00078909  0.22709421     0.35200
C527        C  0.31296838  0.00797029  0.28181725     0.35200
C528        C  0.31281305  0.00840320  0.22808464     0.35200
C529        C  0.22679950  0.97092459  0.35157180    -0.22300
C530        C  0.26204766  0.97237403  0.35187565    -0.22300
C531        C  0.22827987  0.97057024  0.15728507    -0.22300
C532        C  0.26351254  0.97199359  0.15774168    -0.22300
C533        C  0.13811575  0.01391833  0.27127110    -0.23300
C534        C  0.13806619  0.01391263  0.23713194    -0.23300
C535        C  0.34181411  0.02466603  0.27195945    -0.23300
C536        C  0.34171987  0.02494079  0.23779897    -0.23300
C537        C  0.18072356  0.99381800  0.31381093    -0.18700
C538        C  0.30453821  0.99902206  0.31473126    -0.18700
C539        C  0.30462623  0.99948209  0.19520471    -0.18700
C540        C  0.18078001  0.99377914  0.19399895    -0.18700
H541        H  0.21121558  0.96025144  0.37093923     0.14300
H542        H  0.27891152  0.96286656  0.37147481     0.14300
H543        H  0.21346390  0.95931666  0.13783341     0.14300
H544        H  0.28110784  0.96209469  0.13863901     0.14300
H545        H  0.11677448  0.02242562  0.28716374     0.12500
H546        H  0.11673296  0.02249699  0.22157878     0.12500
H547        H  0.36109463  0.03515021  0.28767141     0.12500
H548        H  0.36098976  0.03558248  0.22195919     0.12500
H549        H  0.24113384  0.01314272  0.28417555     0.25800
H550        H  0.24055076  0.01400244  0.22453055     0.28000
C551        C  0.09995438  0.97576008  0.14553266    -0.13700
C552        C  0.10475813  0.99437456  0.11611968     0.08400
C553        C  0.13474123  0.01245598  0.11230984    -0.13700
C554        C  0.15915345  0.01243030  0.13764157    -0.13700
C555        C  0.15456358  0.99361755  0.16700852     0.08400
C556        C  0.12485178  0.97495253  0.17049264    -0.13700
H557        H  0.07718594  0.96138601  0.14897675     0.12400
H558        H  0.13895575  0.02721522  0.08997989     0.12400
H559        H  0.18164601  0.02724936  0.13437876     0.12400
H560        H  0.12085861  0.95984476  0.19263732     0.12400
C561        C  0.13181138  0.51832165  0.39240698    -0.13700
C562        C  0.10317409  0.99848221  0.39017919     0.08400
C563        C  0.10030894  0.97636352  0.36285710    -0.13700
C564        C  0.12589514  0.97421438  0.33839796    -0.13700
C565        C  0.15429901  0.99474590  0.34053492     0.08400
C566        C  0.15587942  0.51860358  0.36657413    -0.13700
H567        H  0.13550088  0.53394391  0.41427800     0.12400
H568        H  0.07861129  0.96027321  0.36078021     0.12400
H569        H  0.12346063  0.95674962  0.31764366     0.12400
H570        H  0.17783646  0.53429315  0.36898002     0.12400
C571        C  0.38903818  0.98333085  0.14858033    -0.13700
C572        C  0.38202504  0.00036883  0.11841705     0.08400
C573        C  0.35305099  0.51923876  0.11456658    -0.13700
C574        C  0.32791525  0.51994342  0.13948571    -0.13700
C575        C  0.33162483  0.00023758  0.16894195     0.08400
C576        C  0.36389533  0.98290716  0.17346168    -0.13700
H577        H  0.41361656  0.96955703  0.15255768     0.12400
H578        H  0.34851211  0.53460839  0.09242336     0.12400
H579        H  0.30445111  0.53585176  0.13618427     0.12400
H580        H  0.36949576  0.96879951  0.19616411     0.12400
C581        C  0.38927625  0.98346171  0.36052093    -0.13700
C582        C  0.38204508  0.99979011  0.39116344     0.08400
C583        C  0.34666638  0.51055954  0.39710969    -0.13700
C584        C  0.32211528  0.51104731  0.37183886    -0.13700
C585        C  0.33142869  0.99948690  0.34105681     0.08400
C586        C  0.36408928  0.98291961  0.33591749    -0.13700
H587        H  0.41413162  0.97035407  0.35589993     0.12400
H588        H  0.34024029  0.52359307  0.42033021     0.12400
H589        H  0.29742140  0.52461280  0.37609505     0.12400
H590        H  0.37003768  0.96936649  0.31286638     0.12400
C591        C  0.02653889  0.65849975  0.13852746    -0.13700
C592        C  0.50230357  0.65856530  0.16720535     0.08400
C593        C  0.48001053  0.63165785  0.17170684    -0.13700
C594        C  0.47696540  0.60656135  0.14705243    -0.13700
C595        C  0.49537049  0.60859473  0.11710584     0.08400
C596        C  0.02297962  0.63459233  0.11299551    -0.13700
H597        H  0.04590015  0.67731740  0.13631265     0.12400
H598        H  0.46496803  0.63010901  0.19432512     0.12400
H599        H  0.45986624  0.58591723  0.15111671     0.12400
H600        H  0.03979451  0.63514372  0.09148023     0.12400
C601        C  0.01651000  0.63595992  0.39376541    -0.13700
C602        C  0.49297715  0.60877600  0.39027205     0.08400
C603        C  0.47785183  0.60405767  0.35912967    -0.13700
C604        C  0.47975841  0.62924031  0.33439165    -0.13700
C605        C  0.49806014  0.65898474  0.33977904     0.08400
C606        C  0.01952888  0.65999683  0.36826704    -0.13700
H607        H  0.03218968  0.63796792  0.41572566     0.12400
H608        H  0.46392025  0.58126960  0.35417637     0.12400
H609        H  0.46696719  0.62544696  0.31097699     0.12400
H610        H  0.03738256  0.68016679  0.37105065     0.12400
C611        C  0.52855074  0.85576872  0.11153009    -0.13700
C612        C  0.50863981  0.88658824  0.11699050     0.08400
C613        C  0.49383274  0.89285018  0.14851962    -0.13700
C614        C  0.49760225  0.86815222  0.17362463    -0.13700
C615        C  0.51696483  0.83703242  0.16802414     0.08400
C616        C  0.53309721  0.83146975  0.13696668    -0.13700
H617        H  0.03993764  0.85465608  0.08958674     0.12400
H618        H  0.47835208  0.91638070  0.15345380     0.12400
H619        H  0.48457505  0.87293390  0.19717700     0.12400
H620        H  0.54837104  0.80779127  0.13213170     0.12400
C621        C  0.48945837  0.89278989  0.35960493    -0.13700
C622        C  0.50578719  0.88698446  0.39028086     0.08400
C623        C  0.02041169  0.85685237  0.39382896    -0.13700
C624        C  0.52929314  0.83150613  0.36955027    -0.13700
C625        C  0.51215209  0.83689479  0.33925329     0.08400
C626        C  0.49236970  0.86785057  0.33445197    -0.13700
H627        H  0.47372810  0.91625182  0.35537268     0.12400
H628        H  0.03464097  0.85255943  0.41661360     0.12400
H629        H  0.04068811  0.80938275  0.37224535     0.12400
H630        H  0.47869154  0.87242723  0.31139911     0.12400
O631        O  0.99704215  0.90313752  0.94739787    -0.75700
O632        O  0.99199714  0.94625018  0.90901793    -0.54600
C633        C  0.99520995  0.91424268  0.91725477     0.78100
O634        O  0.39706631  0.50159608  0.56039123    -0.60300
O635        O  0.44032879  0.49682174  0.59835596    -0.53300
C636        C  0.40794705  0.99765483  0.59056042     0.70100
O637        O  0.39757292  0.49659635  0.94950180    -0.74800
O638        O  0.44024595  0.49434167  0.91027707    -0.55400
C639        C  0.40843521  0.49527186  0.91916804     0.76100
O640        O  0.00523437  0.90143815  0.55839387    -0.60000
O641        O  0.99808012  0.94431285  0.59711513    -0.53100
C642        C  0.49850924  0.91246342  0.59016970     0.72700
Zr643      Zr  0.99532673  0.92684945  0.00387825     2.54700
O644        O  0.45229326  0.88281455  0.00932243    -0.80500
O645        O  0.04439186  0.88230215  0.50118220    -0.93900
Zr646      Zr  0.42256419  0.49610011  0.00523260     2.64700
O647        O  0.38064581  0.95053713  0.00600619    -0.98900
O648        O  0.37197588  0.53912172  0.50236559    -0.81000
O649        O  0.45680170  0.96041945  0.97222839    -0.84300
O650        O  0.45915869  0.96084858  0.53605173    -2.19000
O651        O  0.08793521  0.99873166  0.55885935    -0.67700
O652        O  0.04514047  0.99696434  0.59777080    -0.52300
C653        C  0.07689865  0.99776534  0.58909155     0.71100
O654        O  0.49364289  0.59282296  0.94863883    -0.60600
O655        O  0.49030472  0.55040893  0.90964078    -0.52600
C656        C  0.99400458  0.58340063  0.91628815     0.72900
O657        O  0.49308120  0.59416926  0.55978387    -0.72000
O658        O  0.49274020  0.55090444  0.59817024    -0.50700
C659        C  0.49406324  0.58277755  0.58989867     0.74300
O660        O  0.08707700  0.00243100  0.94716536    -0.67300
O661        O  0.04412872  0.99788850  0.90936379    -0.54500
C662        C  0.07717315  0.49984522  0.91552860     0.72600
Zr663      Zr  0.06433486  0.99806569  0.50272181     2.77500
O664        O  0.10773944  0.54194476  0.00213957    -0.98100
O665        O  0.10954145  0.95247832  0.99944328    -0.78900
Zr666      Zr  0.48787817  0.57046570  0.50358012     2.70100
O667        O  0.02933758  0.61701323  0.50337310    -0.80200
O668        O  0.43740999  0.60785172  0.00424323    -0.99200
Zr669      Zr  0.99253553  0.49861986  0.93910116     2.21500
Zr670      Zr  0.49293235  0.99783935  0.56786528     2.11100
O671        O  0.02746843  0.53618105  0.53619337    -2.47900
O672        O  0.02762357  0.53510723  0.97013299    -0.79900
O673        O  0.03077323  0.96169448  0.53500128    -0.72100
O674        O  0.45481867  0.53346210  0.97258001    -2.33100
O675        O  0.03010667  0.96221636  0.97162116    -2.29300
O676        O  0.45381360  0.53439897  0.53631905    -0.73900
H677        H  0.44608268  0.94648670  0.55032328     0.78100
H678        H  0.43982342  0.54747458  0.95839563     0.79200
H679        H  0.04082879  0.55031306  0.55037101     0.81400
H680        H  0.04469857  0.94814637  0.95687297     0.79000
H681        H  0.38644552  0.56092975  0.01663566     0.42100
H682        H  0.42791820  0.61018641  0.48302240     0.41000
H683        H  0.01839755  0.63700158  0.01604140     0.40700
H684        H  0.10092390  0.55886367  0.52466397     0.38600
H685        H  0.12119339  0.95297485  0.48251069     0.41800
H686        H  0.05639953  0.88681159  0.02074035     0.36500
H687        H  0.46544503  0.86059578  0.01306923     0.42700
H688        H  0.38984341  0.93580438  0.52408516     0.39100
H689        H  0.12265622  0.54205596  0.49537210     0.44000
H690        H  0.03345072  0.86006884  0.50381433     0.42700
H691        H  0.38789660  0.93636087  0.02541818     0.42900
H692        H  0.42318535  0.60368879  0.52116445     0.43200
N693        N  0.50402835  0.74702875  0.80511409    -0.37000
N694        N  0.50435366  0.79952350  0.75369963    -0.57500
N695        N  0.50810320  0.74610032  0.70348019    -0.37000
N696        N  0.50417174  0.69374717  0.75487088    -0.57500
C697        C  0.49391341  0.77586157  0.82224692     0.26600
C698        C  0.49409328  0.71978814  0.82299051     0.26600
C699        C  0.49931423  0.77448017  0.68518982     0.26600
C700        C  0.49915163  0.71831728  0.68584402     0.26600
C701        C  0.51030081  0.81895656  0.78066831     0.35200
C702        C  0.51234666  0.81850065  0.72694446     0.35200
C703        C  0.51072137  0.67423908  0.78213143     0.35200
C704        C  0.51274445  0.67364761  0.72831694     0.35200
C705        C  0.47719693  0.76689556  0.85123379    -0.22300
C706        C  0.47727208  0.73147055  0.85168574    -0.22300
C707        C  0.48447786  0.76462883  0.65571931    -0.22300
C708        C  0.48422627  0.72924621  0.65618764    -0.22300
C709        C  0.52256064  0.85027758  0.77107699    -0.23300
C710        C  0.52389435  0.84997301  0.73695305    -0.23300
C711        C  0.52397516  0.64172387  0.77291310    -0.23300
C712        C  0.52527860  0.64135159  0.73876599    -0.23300
C713        C  0.50167805  0.80978803  0.81345523    -0.18700
C714        C  0.50182861  0.68473279  0.81485381    -0.18700
C715        C  0.50623616  0.68338783  0.69499174    -0.18700
C716        C  0.50593283  0.80884312  0.69382933    -0.18700
H717        H  0.46631980  0.78408424  0.87023134     0.14300
H718        H  0.46636785  0.71609455  0.87106087     0.14300
H719        H  0.47466045  0.78119258  0.63595005     0.14300
H720        H  0.47414715  0.71343131  0.63679816     0.14300
H721        H  0.52926852  0.87136042  0.78694236     0.12500
H722        H  0.53184599  0.87077240  0.72133088     0.12500
H723        H  0.53145845  0.62036456  0.78904609     0.12500
H724        H  0.53400882  0.61964024  0.72341909     0.12500
H725        H  0.52026047  0.74588652  0.78443395     0.25800
H726        H  0.52279964  0.74546141  0.72500794     0.25800
N727        N  0.24038649  0.99979520  0.80380702    -0.37000
N728        N  0.18797362  0.99722570  0.75259062    -0.57500
N729        N  0.24121869  0.99715421  0.70250909    -0.37000
N730        N  0.29380540  0.99584529  0.75376727    -0.57500
C731        C  0.21252133  0.99063622  0.82116928     0.26600
C732        C  0.26846507  0.99018970  0.82195866     0.26600
C733        C  0.21394564  0.98831038  0.68436501     0.26600
C734        C  0.26991571  0.98761376  0.68495917     0.26600
C735        C  0.16826795  0.00623830  0.77926044     0.35200
C736        C  0.16866314  0.00470546  0.72553132     0.35200
C737        C  0.31212256  0.00467313  0.78060570     0.35200
C738        C  0.31247358  0.00388495  0.72674358     0.35200
C739        C  0.22301954  0.97452191  0.85042047    -0.22300
C740        C  0.25835069  0.97428812  0.85093393    -0.22300
C741        C  0.22541630  0.97258012  0.65507946    -0.22300
C742        C  0.26077436  0.97201405  0.65550288    -0.22300
C743        C  0.13639249  0.01988777  0.76910458    -0.23300
C744        C  0.13660399  0.01878494  0.73498894    -0.23300
C745        C  0.34237879  0.01871983  0.77062936    -0.23300
C746        C  0.34255952  0.01833884  0.73647678    -0.23300
C747        C  0.17796645  0.99921968  0.81241926    -0.18700
C748        C  0.30261974  0.99772652  0.81378844    -0.18700
C749        C  0.30369376  0.99572307  0.69369039    -0.18700
C750        C  0.17911759  0.99661407  0.69266748    -0.18700
H751        H  0.20687771  0.96438775  0.86963300     0.14300
H752        H  0.27468658  0.96388656  0.87055651     0.14300
H753        H  0.20993076  0.96289577  0.63528958     0.14300
H754        H  0.27776602  0.96180341  0.63604578     0.14300
H755        H  0.11507756  0.02933507  0.78459022     0.12500
H756        H  0.11554308  0.02725015  0.71903737     0.12500
H757        H  0.36227797  0.02815766  0.78627446     0.12500
H758        H  0.36267826  0.02748380  0.72068780     0.12500
H759        H  0.23997439  0.01546404  0.78280016     0.25800
H760        H  0.24023450  0.01278339  0.72357486     0.28000
C761        C  0.09903586  0.97730074  0.64420409    -0.13700
C762        C  0.10271350  0.99761830  0.61570496     0.08400
C763        C  0.13150662  0.01753804  0.61260555    -0.13700
C764        C  0.15612487  0.01735228  0.63769658    -0.13700
C765        C  0.15274887  0.99671654  0.66602301     0.08400
C766        C  0.12406445  0.97653923  0.66897946    -0.13700
H767        H  0.07714269  0.96153751  0.64698755     0.12400
H768        H  0.13473375  0.03356482  0.59092759     0.12400
H769        H  0.17788497  0.03329922  0.63503960     0.12400
H770        H  0.12105516  0.96028244  0.69052902     0.12400
C771        C  0.13387576  0.51670021  0.89374029    -0.13700
C772        C  0.10125812  0.00099479  0.89006336     0.08400
C773        C  0.09631066  0.98267915  0.86053297    -0.13700
C774        C  0.12127744  0.98181452  0.83543420    -0.13700
C775        C  0.15110672  0.00016077  0.83897686     0.08400
C776        C  0.15923949  0.51593094  0.86909084    -0.13700
H777        H  0.13807340  0.53062571  0.91656175     0.12400
H778        H  0.07359684  0.96823901  0.85725741     0.12400
H779        H  0.11743539  0.96663379  0.81330947     0.12400
H780        H  0.18232015  0.52957461  0.87318010     0.12400
C781        C  0.38831958  0.97946204  0.64689456    -0.13700
C782        C  0.38166593  0.99734029  0.61711198     0.08400
C783        C  0.35288295  0.52110519  0.61549212    -0.13700
C784        C  0.32855499  0.52095583  0.64105475    -0.13700
C785        C  0.33066152  0.99594726  0.66715988     0.08400
C786        C  0.36283981  0.97827133  0.67144159    -0.13700
H787        H  0.41293484  0.96575835  0.65085463     0.12400
H788        H  0.34842951  0.53826603  0.59457154     0.12400
H789        H  0.30564631  0.53802063  0.63955875     0.12400
H790        H  0.36826526  0.96363561  0.69386976     0.12400
C791        C  0.38562888  0.97880503  0.86207995    -0.13700
C792        C  0.37910375  0.99733987  0.89172236     0.08400
C793        C  0.35332945  0.51783437  0.89355870    -0.13700
C794        C  0.32884596  0.51753093  0.86826237    -0.13700
C795        C  0.32915352  0.99762205  0.84066247     0.08400
C796        C  0.36077933  0.97858199  0.83704340    -0.13700
H797        H  0.40977070  0.96400864  0.85849998     0.12400
H798        H  0.34976755  0.53631599  0.91365175     0.12400
H799        H  0.30678969  0.53579102  0.86919561     0.12400
H800        H  0.36624530  0.96349555  0.81477914     0.12400
C801        C  0.02071968  0.66103509  0.63781332    -0.13700
C802        C  0.50496875  0.65614560  0.66878264     0.08400
C803        C  0.48463802  0.62771278  0.67325042    -0.13700
C804        C  0.48162023  0.60351636  0.64781596    -0.13700
C805        C  0.49784602  0.60793738  0.61698627     0.08400
C806        C  0.01621738  0.63719459  0.61247990    -0.13700
H807        H  0.03779405  0.68167374  0.63363122     0.12400
H808        H  0.47053374  0.62459020  0.69622087     0.12400
H809        H  0.46570749  0.58191276  0.65186441     0.12400
H810        H  0.03006913  0.63977299  0.58927392     0.12400
C811        C  0.01672375  0.63777522  0.89467765    -0.13700
C812        C  0.49440063  0.60826788  0.89191669     0.08400
C813        C  0.47649036  0.60505055  0.86201312    -0.13700
C814        C  0.47861189  0.63000868  0.83713050    -0.13700
C815        C  0.49935443  0.65813917  0.84137268     0.08400
C816        C  0.01948549  0.66246431  0.86978264    -0.13700
H817        H  0.03071325  0.64066173  0.91758668     0.12400
H818        H  0.46051872  0.58349666  0.85808872     0.12400
H819        H  0.46411021  0.62737389  0.81449833     0.12400
H820        H  0.03555229  0.68391333  0.87386398     0.12400
C821        C  0.52174572  0.85610908  0.61299989    -0.13700
C822        C  0.50038142  0.88624057  0.61678709     0.08400
C823        C  0.48096409  0.89101921  0.64614564    -0.13700
C824        C  0.48256567  0.86585302  0.67104119    -0.13700
C825        C  0.50430548  0.83588181  0.66743395     0.08400
C826        C  0.52401553  0.83139820  0.63823740    -0.13700
H827        H  0.04429551  0.85241327  0.58881994     0.12400
H828        H  0.46409276  0.91391445  0.64955768     0.12400
H829        H  0.46677033  0.86970374  0.69312864     0.12400
H830        H  0.54103271  0.80859895  0.63492793     0.12400
C831        C  0.47594006  0.89116472  0.86199064    -0.13700
C832        C  0.49597396  0.88650636  0.89067057     0.08400
C833        C  0.01897300  0.85804643  0.89409976    -0.13700
C834        C  0.52035644  0.83238189  0.86821681    -0.13700
C835        C  0.50000980  0.83672202  0.83974417     0.08400
C836        C  0.47766570  0.86623136  0.83684227    -0.13700
H837        H  0.45859979  0.91377731  0.85931672     0.12400
H838        H  0.03355175  0.85362521  0.91666067     0.12400
H839        H  0.03879092  0.81057853  0.87207641     0.12400
H840        H  0.46155496  0.86985300  0.81516235     0.12400
O841        O  0.50146732  0.40154152  0.44746874    -0.75700
O842        O  0.49387549  0.44425697  0.40882962    -0.54600
C843        C  0.49872866  0.41250414  0.41734271     0.78100
O844        O  0.89736251  0.00236430  0.06230807    -0.60300
O845        O  0.94048697  0.99911549  0.10044268    -0.53300
C846        C  0.90816686  0.50362888  0.08935084     0.70100
O847        O  0.89560896  0.99930015  0.44781856    -0.74800
O848        O  0.93833065  0.99645216  0.40867812    -0.55400
C849        C  0.90646846  0.99759764  0.41751960     0.76100
O850        O  0.50625690  0.40080877  0.06072724    -0.60000
O851        O  0.49820824  0.44347746  0.09955737    -0.53100
C852        C  0.00139821  0.41451473  0.08970201     0.72700
Zr853      Zr  0.49771895  0.42522472  0.50381347     2.54700
O854        O  0.95831963  0.38114328  0.50809016    -0.80500
O855        O  0.54682580  0.37995903  0.00375310    -0.93900
Zr856      Zr  0.92039557  0.99844643  0.50345105     2.64700
O857        O  0.88755165  0.44734769  0.50477070    -0.98900
O858        O  0.87629381  0.04886642  0.00688172    -0.81000
O859        O  0.95915139  0.46129648  0.47256199    -0.84300
O860        O  0.95787795  0.46325267  0.03526954    -2.19000
O861        O  0.59164535  0.49630161  0.05851007    -0.67700
O862        O  0.54943907  0.49356965  0.09792705    -0.52300
C863        C  0.58114543  0.49417970  0.08880199     0.71100
O864        O  0.99389356  0.09395712  0.44690741    -0.60600
O865        O  0.99006298  0.05179396  0.40777745    -0.52600
C866        C  0.49377434  0.08321459  0.41837592     0.72900
O867        O  0.99555046  0.09503402  0.06125988    -0.72000
O868        O  0.99357398  0.05204591  0.09979094    -0.50700
C869        C  0.99605133  0.08378142  0.09139355     0.74300
O870        O  0.58735326  0.50146793  0.44576082    -0.67300
O871        O  0.54469416  0.49621607  0.40778417    -0.54500
C872        C  0.57828217  0.99928555  0.41773391     0.72600
Zr873      Zr  0.56627669  0.49898554  0.00334353     2.77500
O874        O  0.60246532  0.04789697  0.50831696    -0.98100
O875        O  0.61370347  0.45780244  0.49927341    -0.78900
Zr876      Zr  0.98972541  0.07195233  0.00503352     2.70100
O877        O  0.51992538  0.12152479  0.00325831    -0.80200
O878        O  0.93895447  0.11171618  0.50246199    -0.99200
Zr879      Zr  0.49310294  0.99831062  0.44041977     2.21500
Zr880      Zr  0.99328595  0.49951818  0.06622047     2.11100
O881        O  0.52681606  0.03391107  0.03602566    -2.47900
O882        O  0.52691482  0.03602890  0.47171923    -0.79900
O883        O  0.53424193  0.46127263  0.03606883    -0.72100
O884        O  0.95359369  0.03543906  0.47094403    -2.33100
O885        O  0.53126849  0.46173351  0.47113427    -2.29300
O886        O  0.95466087  0.03711989  0.03799522    -0.73900
H887        H  0.94450278  0.44946551  0.04985246     0.78100
H888        H  0.93888657  0.04963897  0.45666177     0.79200
H889        H  0.54086331  0.04731081  0.05023342     0.81400
H890        H  0.54631526  0.44784670  0.45663871     0.79000
H891        H  0.85169127  0.02774621  0.50492254     0.42100
H892        H  0.93255401  0.11435407  0.98201407     0.41000
H893        H  0.50392653  0.14120405  0.49826811     0.40700
H894        H  0.60422532  0.05229040  0.97991734     0.38600
H895        H  0.60421107  0.43416242  0.00111175     0.41800
H896        H  0.55745823  0.38319809  0.52123668     0.36500
H897        H  0.97278960  0.35997044  0.51290052     0.42700
H898        H  0.86445298  0.46162795  0.02412799     0.39100
H899        H  0.58644523  0.06570614  0.01275292     0.44000
H900        H  0.56091392  0.38522748  0.98403886     0.42700
H901        H  0.86439059  0.45599223  0.49761101     0.42900
H902        H  0.92212531  0.10145487  0.01732255     0.43200
N903        N  0.00981110  0.24866334  0.30475012    -0.37000
N904        N  0.01107656  0.30132040  0.25349017    -0.57500
N905        N  0.01576677  0.24811382  0.20288284    -0.37000
N906        N  0.01112071  0.19575286  0.25430829    -0.57500
C907        C  0.99981839  0.27749996  0.32192541     0.26600
C908        C  0.99907508  0.22148219  0.32225397     0.26600
C909        C  0.00648101  0.27650197  0.18475966     0.26600
C910        C  0.00689445  0.22027852  0.18524177     0.26600
C911        C  0.01643716  0.32083958  0.28057438     0.35200
C912        C  0.01839676  0.32070886  0.22678660     0.35200
C913        C  0.01607700  0.17587483  0.28157031     0.35200
C914        C  0.01987873  0.17559496  0.22787914     0.35200
C915        C  0.98246239  0.26858533  0.35057515    -0.22300
C916        C  0.98193902  0.23322076  0.35074899    -0.22300
C917        C  0.99156979  0.26658575  0.15535452    -0.22300
C918        C  0.99170526  0.23117213  0.15570274    -0.22300
C919        C  0.02772509  0.35260669  0.27107477    -0.23300
C920        C  0.02890663  0.35254428  0.23694009    -0.23300
C921        C  0.02865408  0.14307861  0.27251062    -0.23300
C922        C  0.03114557  0.14292063  0.23842936    -0.23300
C923        C  0.00780409  0.31143540  0.31334919    -0.18700
C924        C  0.00626104  0.18636228  0.31403435    -0.18700
C925        C  0.01353305  0.18531996  0.19456347    -0.18700
C926        C  0.01236999  0.31100779  0.19357671    -0.18700
H927        H  0.97136654  0.28577380  0.36946306     0.14300
H928        H  0.97038777  0.21791419  0.36979913     0.14300
H929        H  0.98135591  0.28314575  0.13575544     0.14300
H930        H  0.98151349  0.21532765  0.13639923     0.14300
H931        H  0.03375964  0.37388083  0.28700146     0.12500
H932        H  0.03611355  0.37371733  0.22140745     0.12500
H933        H  0.03478501  0.12137598  0.28867274     0.12500
H934        H  0.03941501  0.12100277  0.22314224     0.12500
H935        H  0.02633942  0.24748113  0.28429098     0.25800
H936        H  0.03034985  0.24754917  0.22449187     0.25800
N937        N  0.74319024  0.49828922  0.30432079    -0.37000
N938        N  0.69151560  0.49289425  0.25280368    -0.57500
N939        N  0.74488198  0.49793647  0.20302801    -0.37000
N940        N  0.79689101  0.49912384  0.25442974    -0.57500
C941        C  0.71569442  0.48849127  0.32192117     0.26600
C942        C  0.77151311  0.49047383  0.32276406     0.26600
C943        C  0.71860148  0.48735166  0.18450568     0.26600
C944        C  0.77407939  0.49118128  0.18531803     0.26600
C945        C  0.67112305  0.50069937  0.27935652     0.35200
C946        C  0.67213006  0.49956118  0.22558023     0.35200
C947        C  0.81505741  0.50705054  0.28160149     0.35200
C948        C  0.81575334  0.50788660  0.22778907     0.35200
C949        C  0.72663826  0.47400754  0.35175400    -0.22300
C950        C  0.76186651  0.47510978  0.35223066    -0.22300
C951        C  0.73130648  0.47332435  0.15487951    -0.22300
C952        C  0.76635122  0.47582461  0.15535249    -0.22300
C953        C  0.63873683  0.51255773  0.26894890    -0.23300
C954        C  0.63935781  0.51175242  0.23485278    -0.23300
C955        C  0.84553253  0.52114588  0.27216442    -0.23300
C956        C  0.84600178  0.52160201  0.23801973    -0.23300
C957        C  0.68090907  0.49490810  0.31272258    -0.18700
C958        C  0.80539710  0.49914186  0.31454446    -0.18700
C959        C  0.80704672  0.50101439  0.19451794    -0.18700
C960        C  0.68336309  0.49287771  0.19262814    -0.18700
H961        H  0.71084798  0.46393536  0.37128191     0.14300
H962        H  0.77840997  0.46593281  0.37220609     0.14300
H963        H  0.71679632  0.46286378  0.13477196     0.14300
H964        H  0.78407499  0.46764321  0.13568484     0.14300
H965        H  0.61689240  0.52092931  0.28424778     0.12500
H966        H  0.61813757  0.51942448  0.21878903     0.12500
H967        H  0.86547489  0.52994335  0.28814352     0.12500
H968        H  0.86640646  0.53068166  0.22253135     0.12500
H969        H  0.74216671  0.51329035  0.28290047     0.25800
H970        H  0.74263782  0.51289669  0.22449949     0.28000
C971        C  0.60424391  0.47201071  0.14312552    -0.13700
C972        C  0.60759234  0.49283486  0.11492551     0.08400
C973        C  0.63635835  0.51281732  0.11192628    -0.13700
C974        C  0.66078459  0.51286814  0.13717063    -0.13700
C975        C  0.65746923  0.49217849  0.16549695     0.08400
C976        C  0.62922922  0.47131718  0.16797722    -0.13700
H977        H  0.58245181  0.45609880  0.14578341     0.12400
H978        H  0.63943325  0.52916035  0.09044495     0.12400
H979        H  0.68220031  0.52930079  0.13474298     0.12400
H980        H  0.62633617  0.45482942  0.18937704     0.12400
C981        C  0.63351412  0.01621149  0.39236055    -0.13700
C982        C  0.60230932  0.49858704  0.38890219     0.08400
C983        C  0.59930004  0.47740536  0.36087862    -0.13700
C984        C  0.62508948  0.47560535  0.33646738    -0.13700
C985        C  0.65381217  0.49576366  0.33914659     0.08400
C986        C  0.65799576  0.01364791  0.36684641    -0.13700
H987        H  0.63736215  0.03336730  0.41308715     0.12400
H988        H  0.57747175  0.46156417  0.35832011     0.12400
H989        H  0.62262190  0.45854376  0.31540790     0.12400
H990        H  0.68027797  0.02903112  0.36816364     0.12400
C991        C  0.88835492  0.48227119  0.14408204    -0.13700
C992        C  0.88274102  0.50402053  0.11657519     0.08400
C993        C  0.85117812  0.01976172  0.11542265    -0.13700
C994        C  0.82609371  0.01906509  0.14024913    -0.13700
C995        C  0.83371656  0.50288492  0.16814588     0.08400
C996        C  0.86388447  0.48146732  0.16951022    -0.13700
H997        H  0.91134991  0.46532017  0.14552501     0.12400
H998        H  0.84595174  0.03508187  0.09337144     0.12400
H999        H  0.80198810  0.03394645  0.13706123     0.12400
H1000       H  0.86828866  0.46391558  0.19013120     0.12400
C1001       C  0.88816877  0.48007780  0.36256810    -0.13700
C1002       C  0.88136590  0.49818406  0.39235346     0.08400
C1003       C  0.84832228  0.01492749  0.39485367    -0.13700
C1004       C  0.82351594  0.01394562  0.36994082    -0.13700
C1005       C  0.83181994  0.49901665  0.34133025     0.08400
C1006       C  0.86344923  0.48007522  0.33752372    -0.13700
H1007       H  0.91238749  0.46543217  0.35889360     0.12400
H1008       H  0.84268863  0.03032186  0.41689663     0.12400
H1009       H  0.79928305  0.02870034  0.37311852     0.12400
H1010       H  0.86899071  0.46524195  0.31511984     0.12400
C1011       C  0.52691504  0.15685347  0.13967883    -0.13700
C1012       C  0.01068370  0.15786519  0.16883034     0.08400
C1013       C  0.98870055  0.13080686  0.17386468    -0.13700
C1014       C  0.98436079  0.10630197  0.14895022    -0.13700
C1015       C  0.00099793  0.10907986  0.11811994     0.08400
C1016       C  0.52249034  0.13285641  0.11433320    -0.13700
H1017       H  0.54477736  0.17688152  0.13590867     0.12400
H1018       H  0.97441711  0.12898876  0.19690989     0.12400
H1019       H  0.96724371  0.08575789  0.15340766     0.12400
H1020       H  0.53717159  0.13468768  0.09151730     0.12400
C1021       C  0.51841592  0.13626653  0.39591682    -0.13700
C1022       C  0.99577434  0.10958152  0.39030637     0.08400
C1023       C  0.97790312  0.10723130  0.36027530    -0.13700
C1024       C  0.98093593  0.13234002  0.33563947    -0.13700
C1025       C  0.00254680  0.15972008  0.34029749     0.08400
C1026       C  0.52167771  0.16056611  0.37073220    -0.13700
H1027       H  0.53357244  0.13823746  0.41822899     0.12400
H1028       H  0.96128294  0.08625183  0.35606584     0.12400
H1029       H  0.96653626  0.13037344  0.31285992     0.12400
H1030       H  0.53925057  0.18091132  0.37400861     0.12400
C1031       C  0.02769031  0.35948183  0.11316024    -0.13700
C1032       C  0.00491948  0.38866711  0.11664854     0.08400
C1033       C  0.98502906  0.39254887  0.14579404    -0.13700
C1034       C  0.98731440  0.36733492  0.17064577    -0.13700
C1035       C  0.01020537  0.33818695  0.16725328     0.08400
C1036       C  0.03055622  0.33467712  0.13835534    -0.13700
H1037       H  0.54719684  0.35447618  0.09329876     0.12400
H1038       H  0.96708398  0.41467020  0.14897116     0.12400
H1039       H  0.97106902  0.37045980  0.19250585     0.12400
H1040       H  0.04845905  0.31252262  0.13520940     0.12400
C1041       C  0.97991738  0.39210954  0.36214038    -0.13700
C1042       C  0.99887917  0.38719465  0.39146834     0.08400
C1043       C  0.52549776  0.35823873  0.39331236    -0.13700
C1044       C  0.02461738  0.33363864  0.36897306    -0.13700
C1045       C  0.00539397  0.33827119  0.33978918     0.08400
C1046       C  0.98283204  0.36758909  0.33664601    -0.13700
H1047       H  0.96256388  0.41466884  0.35915868     0.12400
H1048       H  0.54158551  0.35504538  0.41505636     0.12400
H1049       H  0.54708701  0.31193758  0.37041530     0.12400
H1050       H  0.96742341  0.37137079  0.31451696     0.12400
O1051       O  0.50412358  0.40025784  0.94850560    -0.75700
O1052       O  0.49758195  0.44319239  0.91000472    -0.54600
C1053       C  0.50205233  0.41130831  0.91835142     0.78100
O1054       O  0.89611223  0.00146924  0.55958374    -0.60300
O1055       O  0.93892030  0.99694719  0.59797432    -0.53300
C1056       C  0.90807298  0.50032068  0.59063539     0.70100
O1057       O  0.89480171  0.00300220  0.95003211    -0.74800
O1058       O  0.93746458  0.99913561  0.91094077    -0.55400
C1059       C  0.90559948  0.00115132  0.91968062     0.76100
O1060       O  0.50505800  0.40185778  0.56032506    -0.60000
O1061       O  0.49785242  0.44476067  0.59889599    -0.53100
C1062       C  0.00257556  0.41368391  0.59042112     0.72700
Zr1063     Zr  0.50025709  0.42465332  0.00459382     2.54700
O1064       O  0.95171770  0.38563910  0.00678961    -0.80500
O1065       O  0.54139233  0.37766845  0.50329413    -0.93900
Zr1066     Zr  0.92008121  0.00152309  0.00566745     2.64700
O1067       O  0.87999218  0.45547803  0.00522559    -0.98900
O1068       O  0.87233222  0.04130190  0.50258577    -0.81000
O1069       O  0.95782763  0.46273589  0.97137045    -0.84300
O1070       O  0.95937468  0.46169001  0.53678750    -2.19000
O1071       O  0.58906285  0.49745092  0.55842551    -0.67700
O1072       O  0.54656034  0.49483557  0.59751721    -0.52300
C1073       C  0.57827529  0.49570699  0.58873928     0.71100
O1074       O  0.99507748  0.09481496  0.94857355    -0.60600
O1075       O  0.98959470  0.05241358  0.90993003    -0.52600
C1076       C  0.49073408  0.08286225  0.91867874     0.72900
O1077       O  0.99167564  0.09477413  0.55893437    -0.72000
O1078       O  0.98962457  0.05205089  0.59773774    -0.50700
C1079       C  0.99124176  0.08384768  0.58915276     0.74300
O1080       O  0.58936247  0.50041086  0.94706867    -0.67300
O1081       O  0.54653238  0.49622345  0.90908313    -0.54500
C1082       C  0.57579600  0.99566148  0.91661092     0.72600
Zr1083     Zr  0.56462651  0.49937024  0.50237450     2.77500
O1084       O  0.60090213  0.04614962  0.00353584    -0.98100
O1085       O  0.61472902  0.45673661  0.99982698    -0.78900
Zr1086     Zr  0.98861548  0.07072832  0.50295108     2.70100
O1087       O  0.52000376  0.12262368  0.50671413    -0.80200
O1088       O  0.94032763  0.11328393  0.00537841    -0.99200
Zr1089     Zr  0.49065670  0.99750156  0.94032031     2.21500
Zr1090     Zr  0.99335577  0.49905890  0.56797326     2.11100
O1091       O  0.52690860  0.03548416  0.53640191    -2.47900
O1092       O  0.52549491  0.03437476  0.97146041    -0.79900
O1093       O  0.53230637  0.46166054  0.53484976    -0.72100
O1094       O  0.95387384  0.03753041  0.97300790    -2.33100
O1095       O  0.53343743  0.46127650  0.97196143    -2.29300
O1096       O  0.95372790  0.03538812  0.53553935    -0.73900
H1097       H  0.94641439  0.44740428  0.55127306     0.78100
H1098       H  0.93938228  0.05207052  0.95882868     0.79200
H1099       H  0.54042751  0.04935530  0.55068990     0.81400
H1100       H  0.54862191  0.44748185  0.95752652     0.79000
H1101       H  0.87761153  0.05897507  0.02940813     0.42100
H1102       H  0.94884626  0.13464109  0.50257119     0.41000
H1103       H  0.54134765  0.11532437  0.01546865     0.40700
H1104       H  0.62496079  0.03866585  0.49958998     0.38600
H1105       H  0.60765281  0.44122426  0.48183987     0.41800
H1106       H  0.56146721  0.38540765  0.02285324     0.36500
H1107       H  0.93087745  0.39838075  0.99829454     0.42700
H1108       H  0.88465489  0.44148142  0.52851412     0.39100
H1109       H  0.59392440  0.06460106  0.49130929     0.44000
H1110       H  0.55477525  0.38075175  0.48262739     0.42700
H1111       H  0.86537447  0.45910404  0.98537437     0.42900
H1112       H  0.92913313  0.10966894  0.47997196     0.43200
N1113       N  0.00342124  0.24713863  0.80409824    -0.37000
N1114       N  0.00453140  0.30032866  0.75357849    -0.57500
N1115       N  0.00852669  0.24757602  0.70259660    -0.37000
N1116       N  0.00370421  0.19461692  0.75329302    -0.57500
C1117       C  0.99325191  0.27560164  0.82180070     0.26600
C1118       C  0.99429786  0.21945669  0.82176961     0.26600
C1119       C  0.00042866  0.27646952  0.68487372     0.26600
C1120       C  0.99794476  0.22055321  0.68484793     0.26600
C1121       C  0.00995640  0.31931843  0.78097985     0.35200
C1122       C  0.01426181  0.31924027  0.72737063     0.35200
C1123       C  0.01081170  0.17461897  0.78010061     0.35200
C1124       C  0.01149661  0.17496633  0.72627164     0.35200
C1125       C  0.97725664  0.26593063  0.85093609    -0.22300
C1126       C  0.97787884  0.23048194  0.85090554    -0.22300
C1127       C  0.98434320  0.26777948  0.65567604    -0.22300
C1128       C  0.98260828  0.23250916  0.65573333    -0.22300
C1129       C  0.02343160  0.35032301  0.77221574    -0.23300
C1130       C  0.02636391  0.35018702  0.73819576    -0.23300
C1131       C  0.02375573  0.14223255  0.77008668    -0.23300
C1132       C  0.02412648  0.14243427  0.73590343    -0.23300
C1133       C  0.00065052  0.30977695  0.81348707    -0.18700
C1134       C  0.00259311  0.18460500  0.81313189    -0.18700
C1135       C  0.00403117  0.18535397  0.69334879    -0.18700
C1136       C  0.00862086  0.31022596  0.69393166    -0.18700
H1137       H  0.96657121  0.28265681  0.87038848     0.14300
H1138       H  0.96760245  0.21466498  0.87028171     0.14300
H1139       H  0.97464841  0.28504938  0.63640132     0.14300
H1140       H  0.97141351  0.21742428  0.63640854     0.14300
H1141       H  0.03028149  0.37094760  0.78857247     0.12500
H1142       H  0.03573829  0.37078543  0.72316719     0.12500
H1143       H  0.03151235  0.12054944  0.78571187     0.12500
H1144       H  0.03224237  0.12095292  0.71999583     0.12500
H1145       H  0.01939331  0.24647895  0.78324398     0.25800
H1146       H  0.02371273  0.24610539  0.72381142     0.25800
N1147       N  0.74294410  0.49285971  0.80392710    -0.37000
N1148       N  0.68976918  0.49173947  0.75311720    -0.57500
N1149       N  0.74221205  0.49637312  0.70279398    -0.37000
N1150       N  0.79560874  0.49318871  0.75368322    -0.57500
C1151       C  0.71553050  0.48329335  0.82165558     0.26600
C1152       C  0.77133505  0.48451796  0.82204566     0.26600
C1153       C  0.71500120  0.48771363  0.68444303     0.26600
C1154       C  0.77087238  0.48811365  0.68470894     0.26600
C1155       C  0.67041175  0.49914894  0.78041382     0.35200
C1156       C  0.66996696  0.50055973  0.72666984     0.35200
C1157       C  0.81422137  0.50113472  0.78058063     0.35200
C1158       C  0.81391099  0.50234237  0.72683373     0.35200
C1159       C  0.72661151  0.46816842  0.85120124    -0.22300
C1160       C  0.76188760  0.46892264  0.85143479    -0.22300
C1161       C  0.72654531  0.47348048  0.65450395    -0.22300
C1162       C  0.76182850  0.47376042  0.65465877    -0.22300
C1163       C  0.63824020  0.51294014  0.77127168    -0.23300
C1164       C  0.63794149  0.51373898  0.73716444    -0.23300
C1165       C  0.84436022  0.51558750  0.77075341    -0.23300
C1166       C  0.84421897  0.51623450  0.73666488    -0.23300
C1167       C  0.68083044  0.49136064  0.81324288    -0.18700
C1168       C  0.80502239  0.49340135  0.81365615    -0.18700
C1169       C  0.80459661  0.49591866  0.69365177    -0.18700
C1170       C  0.68008716  0.49466552  0.69329841    -0.18700
H1171       H  0.71085944  0.45830868  0.87087452     0.14300
H1172       H  0.77858590  0.45960849  0.87124546     0.14300
H1173       H  0.71116216  0.46413340  0.63448257     0.14300
H1174       H  0.77885909  0.46476714  0.63473454     0.14300
H1175       H  0.61712097  0.52147892  0.78741757     0.12500
H1176       H  0.61661624  0.52297451  0.72189562     0.12500
H1177       H  0.86438325  0.52474647  0.78641249     0.12500
H1178       H  0.86414563  0.52588295  0.72094867     0.12500
H1179       H  0.74186602  0.50846352  0.78291768     0.25800
H1180       H  0.74115033  0.51093294  0.72456386     0.28000
C1181       C  0.60006139  0.47536753  0.64424959    -0.13700
C1182       C  0.60417603  0.49518378  0.61544674     0.08400
C1183       C  0.63297455  0.51512214  0.61260012    -0.13700
C1184       C  0.65709169  0.51548670  0.63815070    -0.13700
C1185       C  0.65343562  0.49519518  0.66671435     0.08400
C1186       C  0.62469770  0.47502046  0.66944540    -0.13700
H1187       H  0.57809431  0.45969819  0.64698969     0.12400
H1188       H  0.63650690  0.53091941  0.59082211     0.12400
H1189       H  0.67882426  0.53147674  0.63555360     0.12400
H1190       H  0.62141972  0.45890059  0.69104546     0.12400
C1191       C  0.63037531  0.01457021  0.89215495    -0.13700
C1192       C  0.60396385  0.49698507  0.89032099     0.08400
C1193       C  0.59981093  0.47601896  0.86236141    -0.13700
C1194       C  0.62515464  0.47347405  0.83767532    -0.13700
C1195       C  0.65452306  0.49263757  0.84013922     0.08400
C1196       C  0.65566331  0.01288380  0.86741823    -0.13700
H1197       H  0.63274296  0.03226746  0.91274176     0.12400
H1198       H  0.57734968  0.46102098  0.85999720     0.12400
H1199       H  0.62178486  0.45677662  0.81650181     0.12400
H1200       H  0.67693874  0.02956115  0.86910033     0.12400
C1201       C  0.88768533  0.47884496  0.64522890    -0.13700
C1202       C  0.88207206  0.49998128  0.61731378     0.08400
C1203       C  0.84833273  0.01583369  0.61209438    -0.13700
C1204       C  0.82387632  0.01626359  0.63765887    -0.13700
C1205       C  0.83130521  0.49714951  0.66717228     0.08400
C1206       C  0.86231803  0.47708934  0.66973679    -0.13700
H1207       H  0.91136360  0.46307508  0.64767865     0.12400
H1208       H  0.84180469  0.02869763  0.58893484     0.12400
H1209       H  0.79904343  0.02953070  0.63371254     0.12400
H1210       H  0.86687217  0.46013172  0.69078553     0.12400
C1211       C  0.88885939  0.47936321  0.86105377    -0.13700
C1212       C  0.88165242  0.49810481  0.89040012     0.08400
C1213       C  0.84630316  0.01614564  0.89782501    -0.13700
C1214       C  0.82203461  0.01619400  0.87228820    -0.13700
C1215       C  0.83141668  0.49464959  0.84034956     0.08400
C1216       C  0.86380399  0.47716235  0.83655193    -0.13700
H1217       H  0.91361541  0.46573017  0.85740577     0.12400
H1218       H  0.83916902  0.02836556  0.92127441     0.12400
H1219       H  0.79679431  0.02857887  0.87660239     0.12400
H1220       H  0.86973885  0.46188886  0.81449786     0.12400
C1221       C  0.52068971  0.15931927  0.63971621    -0.13700
C1222       C  0.00123781  0.15861041  0.66693396     0.08400
C1223       C  0.98023106  0.13069965  0.67155853    -0.13700
C1224       C  0.97706366  0.10617205  0.64639916    -0.13700
C1225       C  0.99400989  0.10970730  0.61579941     0.08400
C1226       C  0.51758028  0.13518764  0.61431168    -0.13700
H1227       H  0.53862651  0.17941099  0.63670452     0.12400
H1228       H  0.96613652  0.12800702  0.69460371     0.12400
H1229       H  0.96093205  0.08477304  0.65062258     0.12400
H1230       H  0.53327019  0.13697220  0.59212752     0.12400
C1231       C  0.51486178  0.13592415  0.89537418    -0.13700
C1232       C  0.99559730  0.10941887  0.89135668     0.08400
C1233       C  0.97820437  0.10526637  0.86125463    -0.13700
C1234       C  0.98060790  0.12948254  0.83575679    -0.13700
C1235       C  0.00114327  0.15780590  0.83956610     0.08400
C1236       C  0.51744508  0.16022969  0.87003238    -0.13700
H1237       H  0.53071975  0.13782759  0.91722700     0.12400
H1238       H  0.96222579  0.08364707  0.85770022     0.12400
H1239       H  0.96616076  0.12633148  0.81316734     0.12400
H1240       H  0.53514390  0.18054536  0.87278299     0.12400
C1241       C  0.02541863  0.35686865  0.61293588    -0.13700
C1242       C  0.00548657  0.38787372  0.61729735     0.08400
C1243       C  0.98747271  0.39366910  0.64728890    -0.13700
C1244       C  0.98850096  0.36851521  0.67206448    -0.13700
C1245       C  0.00847286  0.33750968  0.66784353     0.08400
C1246       C  0.02724595  0.33210615  0.63816092    -0.13700
H1247       H  0.54084036  0.35118059  0.58979569     0.12400
H1248       H  0.97165244  0.41720113  0.65114495     0.12400
H1249       H  0.97328626  0.37306944  0.69441921     0.12400
H1250       H  0.04290035  0.30845904  0.63435550     0.12400
C1251       C  0.97647651  0.39176583  0.86186164    -0.13700
C1252       C  0.99640699  0.38686457  0.89059324     0.08400
C1253       C  0.52302333  0.35360019  0.89602041    -0.13700
C1254       C  0.01907646  0.33178499  0.86868279    -0.13700
C1255       C  0.99893718  0.33645973  0.84009617     0.08400
C1256       C  0.97744048  0.36655876  0.83695526    -0.13700
H1257       H  0.95983498  0.41484117  0.85892238     0.12400
H1258       H  0.53570914  0.34767912  0.91935226     0.12400
H1259       H  0.53918227  0.30460600  0.87470139     0.12400
H1260       H  0.96156114  0.37054269  0.81516077     0.12400
O1261       O  0.50348169  0.90172669  0.44751474    -0.75700
O1262       O  0.49707092  0.94475015  0.40908949    -0.54600
C1263       C  0.50177992  0.91282422  0.41734851     0.78100
O1264       O  0.89684445  0.50603883  0.05940356    -0.60300
O1265       O  0.94003339  0.50017897  0.09737478    -0.53300
C1266       C  0.90861895  0.00092804  0.09229833     0.70100
O1267       O  0.89647205  0.49991466  0.44922415    -0.74800
O1268       O  0.93922574  0.49629501  0.41019451    -0.55400
C1269       C  0.90736898  0.49804467  0.41895017     0.76100
O1270       O  0.50535174  0.90131399  0.05977800    -0.60000
O1271       O  0.49683623  0.94373353  0.09865431    -0.53100
C1272       C  0.99885330  0.91349692  0.09017421     0.72700
Zr1273     Zr  0.49849654  0.92585152  0.50373466     2.54700
O1274       O  0.95324417  0.88328018  0.50514522    -0.80500
O1275       O  0.54059365  0.87849402  0.99761731    -0.93900
Zr1276     Zr  0.92146243  0.49813160  0.50474828     2.64700
O1277       O  0.88283199  0.95040116  0.50346509    -0.98900
O1278       O  0.87505923  0.54608917  0.00030685    -0.81000
O1279       O  0.95789643  0.96151566  0.47103444    -0.84300
O1280       O  0.95731043  0.96313702  0.03663473    -2.19000
O1281       O  0.58878125  0.99446981  0.05820982    -0.67700
O1282       O  0.54648575  0.99245873  0.09756739    -0.52300
C1283       C  0.57821536  0.99253641  0.08852135     0.71100
O1284       O  0.99344530  0.59429672  0.44761948    -0.60600
O1285       O  0.98942821  0.55161879  0.40898311    -0.52600
C1286       C  0.49087795  0.58262943  0.41683790     0.72900
O1287       O  0.99605355  0.59518149  0.05868099    -0.72000
O1288       O  0.99196123  0.55277318  0.09749826    -0.50700
C1289       C  0.99501289  0.58429925  0.08886791     0.74300
O1290       O  0.58920650  0.00246186  0.44765619    -0.67300
O1291       O  0.54667070  0.99682255  0.40960491    -0.54500
C1292       C  0.57634655  0.49891993  0.41580505     0.72600
Zr1293     Zr  0.56371049  0.99774923  0.00275937     2.77500
O1294       O  0.60083290  0.54851090  0.50483940    -0.98100
O1295       O  0.61278516  0.95690006  0.50018825    -0.78900
Zr1296     Zr  0.98996413  0.57176302  0.00265296     2.70100
O1297       O  0.52577495  0.61795840  0.00493736    -0.80200
O1298       O  0.93963347  0.61293770  0.50258473    -0.99200
Zr1299     Zr  0.49154752  0.49760606  0.43975171     2.21500
Zr1300     Zr  0.99299866  0.99880014  0.06817316     2.11100
O1301       O  0.52848374  0.53451625  0.03641844    -2.47900
O1302       O  0.52605305  0.53500619  0.47047034    -0.79900
O1303       O  0.53103525  0.96043500  0.03521847    -0.72100
O1304       O  0.95417573  0.53552838  0.47236446    -2.33100
O1305       O  0.53240964  0.96246699  0.47185422    -2.29300
O1306       O  0.95484743  0.53702739  0.03538560    -0.73900
H1307       H  0.94397352  0.94911569  0.05101791     0.78100
H1308       H  0.93930589  0.54963370  0.45814399     0.79200
H1309       H  0.54196892  0.54862336  0.05052522     0.81400
H1310       H  0.54774322  0.94867100  0.45754406     0.79000
H1311       H  0.85158499  0.52355052  0.51119913     0.42100
H1312       H  0.94823112  0.63441454  0.00417858     0.41000
H1313       H  0.51268333  0.63799703  0.50025293     0.40700
H1314       H  0.62597370  0.53775350  0.99811011     0.38600
H1315       H  0.63266628  0.96930549  0.00096275     0.41800
H1316       H  0.56198977  0.89112752  0.52195023     0.36500
H1317       H  0.94586537  0.88288928  0.52872324     0.42700
H1318       H  0.88183671  0.94455963  0.98588383     0.39100
H1319       H  0.59547134  0.56202033  0.98523100     0.44000
H1320       H  0.55747800  0.88766279  0.98192803     0.42700
H1321       H  0.86290566  0.95830841  0.51742351     0.42900
H1322       H  0.92784031  0.60853098  0.98324482     0.43200
N1323       N  0.00794296  0.74688078  0.30371166    -0.37000
N1324       N  0.01143199  0.79971554  0.25281489    -0.57500
N1325       N  0.01290453  0.74714183  0.20187678    -0.37000
N1326       N  0.00564387  0.69449775  0.25292590    -0.57500
C1327       C  0.99948843  0.77589480  0.32132386     0.26600
C1328       C  0.99699955  0.71995146  0.32146945     0.26600
C1329       C  0.00531917  0.77598850  0.18387206     0.26600
C1330       C  0.00286051  0.72011190  0.18385429     0.26600
C1331       C  0.01773484  0.81866854  0.28000795     0.35200
C1332       C  0.01989914  0.81878471  0.22627022     0.35200
C1333       C  0.00988736  0.67396563  0.27985983     0.35200
C1334       C  0.01252302  0.67424787  0.22611682     0.35200
C1335       C  0.98290217  0.76726691  0.35050970    -0.22300
C1336       C  0.98143079  0.73198971  0.35063861    -0.22300
C1337       C  0.99032222  0.76710981  0.15413670    -0.22300
C1338       C  0.98888289  0.73185368  0.15408208    -0.22300
C1339       C  0.03090194  0.84969985  0.27073372    -0.23300
C1340       C  0.03221579  0.84979151  0.23660066    -0.23300
C1341       C  0.01979002  0.64059401  0.27012558    -0.23300
C1342       C  0.02143104  0.64076841  0.23603146    -0.23300
C1343       C  0.00821287  0.80966947  0.31264623    -0.18700
C1344       C  0.00242235  0.68469226  0.31281923    -0.18700
C1345       C  0.00750538  0.68500425  0.19291951    -0.18700
C1346       C  0.01285607  0.80991202  0.19309705    -0.18700
H1347       H  0.97292350  0.78455585  0.36982673     0.14300
H1348       H  0.97010561  0.71693600  0.37002034     0.14300
H1349       H  0.98115408  0.78420980  0.13451457     0.14300
H1350       H  0.97848419  0.71662914  0.13440425     0.14300
H1351       H  0.03800305  0.87045516  0.28681487     0.12500
H1352       H  0.04047096  0.87060973  0.22116317     0.12500
H1353       H  0.02497893  0.61835937  0.28585636     0.12500
H1354       H  0.02796901  0.61866850  0.22034081     0.12500
H1355       H  0.02367083  0.74524216  0.28270100     0.25800
H1356       H  0.02719964  0.74556565  0.22363973     0.25800
N1357       N  0.74181495  0.99197466  0.30390580    -0.37000
N1358       N  0.68940984  0.98798794  0.25256973    -0.57500
N1359       N  0.74229209  0.99454918  0.20288479    -0.37000
N1360       N  0.79474324  0.99443473  0.25443128    -0.57500
C1361       C  0.71452887  0.98143910  0.32116707     0.26600
C1362       C  0.77016573  0.98380543  0.32215426     0.26600
C1363       C  0.71592888  0.98432083  0.18420535     0.26600
C1364       C  0.77154928  0.98778183  0.18522640     0.26600
C1365       C  0.66947422  0.99541531  0.27951052     0.35200
C1366       C  0.66972025  0.99542406  0.22570302     0.35200
C1367       C  0.81280148  0.00251030  0.28161466     0.35200
C1368       C  0.81293947  0.00459683  0.22794635     0.35200
C1369       C  0.72561096  0.96589752  0.35049965    -0.22300
C1370       C  0.76082660  0.96732078  0.35108657    -0.22300
C1371       C  0.72863032  0.97058502  0.15446539    -0.22300
C1372       C  0.76374165  0.97275624  0.15510812    -0.22300
C1373       C  0.63700365  0.00770986  0.26972518    -0.23300
C1374       C  0.63713905  0.00762506  0.23559862    -0.23300
C1375       C  0.84248554  0.01812864  0.27242099    -0.23300
C1376       C  0.84254389  0.01952651  0.23833063    -0.23300
C1377       C  0.67985333  0.98911006  0.31263842    -0.18700
C1378       C  0.80365688  0.99355886  0.31431213    -0.18700
C1379       C  0.80462150  0.99736264  0.19468851    -0.18700
C1380       C  0.68065224  0.98961229  0.19250976    -0.18700
H1381       H  0.70985039  0.95537859  0.36981301     0.14300
H1382       H  0.77753549  0.95799553  0.37088216     0.14300
H1383       H  0.71410645  0.96033481  0.13425922     0.14300
H1384       H  0.78144931  0.96450619  0.13545710     0.14300
H1385       H  0.61543759  0.01594529  0.28544074     0.12500
H1386       H  0.61577438  0.01588968  0.21994518     0.12500
H1387       H  0.86213112  0.02732619  0.28852114     0.12500
H1388       H  0.86234709  0.02992422  0.22296678     0.12500
H1389       H  0.74049427  0.00803739  0.28320330     0.25800
H1390       H  0.74012777  0.00916471  0.22458489     0.28000
C1391       C  0.60068466  0.97043544  0.14318648    -0.13700
C1392       C  0.60456279  0.99086714  0.11478137     0.08400
C1393       C  0.63373969  0.01024371  0.11175076    -0.13700
C1394       C  0.65816478  0.00995589  0.13702801    -0.13700
C1395       C  0.65450361  0.98947156  0.16545870     0.08400
C1396       C  0.62570043  0.96933259  0.16805328    -0.13700
H1397       H  0.57852168  0.95503672  0.14593920     0.12400
H1398       H  0.63718722  0.02636112  0.09017599     0.12400
H1399       H  0.67990908  0.02593924  0.13449379     0.12400
H1400       H  0.62244244  0.95299408  0.18949877     0.12400
C1401       C  0.63119185  0.51839232  0.39178626    -0.13700
C1402       C  0.60402767  0.99718768  0.39077827     0.08400
C1403       C  0.59973219  0.97506579  0.36365711    -0.13700
C1404       C  0.62462280  0.97186787  0.33857216    -0.13700
C1405       C  0.65375697  0.99144607  0.33975309     0.08400
C1406       C  0.65647352  0.51730092  0.36697122    -0.13700
H1407       H  0.63405109  0.53496677  0.41314637     0.12400
H1408       H  0.57742694  0.95972454  0.36221972     0.12400
H1409       H  0.62110006  0.95427257  0.31812620     0.12400
H1410       H  0.67820765  0.53327179  0.36947341     0.12400
C1411       C  0.88901363  0.98164836  0.14807594    -0.13700
C1412       C  0.88281122  0.00106999  0.11913448     0.08400
C1413       C  0.85250449  0.52538158  0.11510609    -0.13700
C1414       C  0.82830650  0.52504834  0.14088622    -0.13700
C1415       C  0.83186746  0.99894889  0.16881149     0.08400
C1416       C  0.86353140  0.98019948  0.17251351    -0.13700
H1417       H  0.91313533  0.96679782  0.15131120     0.12400
H1418       H  0.84772530  0.54240216  0.09413866     0.12400
H1419       H  0.80511063  0.54170430  0.13942347     0.12400
H1420       H  0.86839795  0.96429331  0.19425028     0.12400
C1421       C  0.88682912  0.97706145  0.36214179    -0.13700
C1422       C  0.88031532  0.99669413  0.39108541     0.08400
C1423       C  0.84955751  0.51664006  0.39643939    -0.13700
C1424       C  0.82526309  0.51748241  0.37099152    -0.13700
C1425       C  0.82995952  0.99419481  0.34105917     0.08400
C1426       C  0.86175211  0.97552664  0.33753852    -0.13700
H1427       H  0.91112692  0.96246921  0.35879764     0.12400
H1428       H  0.84375728  0.53100540  0.41907359     0.12400
H1429       H  0.80120669  0.53245982  0.37448357     0.12400
H1430       H  0.86719475  0.95990145  0.31560917     0.12400
C1431       C  0.52110891  0.66009416  0.13740555    -0.13700
C1432       C  0.00490967  0.65843242  0.16657095     0.08400
C1433       C  0.98000587  0.63377439  0.16889381    -0.13700
C1434       C  0.97703235  0.60931881  0.14374770    -0.13700
C1435       C  0.99826045  0.60980500  0.11549766     0.08400
C1436       C  0.51727096  0.63567091  0.11241674    -0.13700
H1437       H  0.53869443  0.68033388  0.13344696     0.12400
H1438       H  0.96281888  0.63358168  0.19014449     0.12400
H1439       H  0.95774609  0.59043268  0.14602803     0.12400
H1440       H  0.53201188  0.63749244  0.08963108     0.12400
C1441       C  0.51062664  0.63875617  0.39591069    -0.13700
C1442       C  0.99411281  0.60910396  0.39064353     0.08400
C1443       C  0.97437520  0.60697572  0.36170275    -0.13700
C1444       C  0.97673914  0.63162213  0.33650854    -0.13700
C1445       C  0.99958729  0.65821744  0.33944467     0.08400
C1446       C  0.51367751  0.66320636  0.37079534    -0.13700
H1447       H  0.52286072  0.64290363  0.41955346     0.12400
H1448       H  0.95679251  0.58657131  0.35882832     0.12400
H1449       H  0.96080649  0.62994503  0.31468702     0.12400
H1450       H  0.52841879  0.68547429  0.37559071     0.12400
C1451       C  0.02522842  0.85826539  0.11238270    -0.13700
C1452       C  0.00263704  0.88742210  0.11671686     0.08400
C1453       C  0.98427920  0.89165810  0.14673280    -0.13700
C1454       C  0.98789265  0.86670149  0.17168474    -0.13700
C1455       C  0.01054659  0.83752665  0.16737048     0.08400
C1456       C  0.02948847  0.83378373  0.13764592    -0.13700
H1457       H  0.54067241  0.85049367  0.08762289     0.12400
H1458       H  0.96664045  0.91390589  0.15059529     0.12400
H1459       H  0.97269965  0.86991042  0.19422704     0.12400
H1460       H  0.04712652  0.81153725  0.13381522     0.12400
C1461       C  0.98152095  0.89204749  0.35951624    -0.13700
C1462       C  0.99925894  0.88698503  0.38953837     0.08400
C1463       C  0.52592752  0.85618254  0.39491684    -0.13700
C1464       C  0.02398862  0.83228973  0.36850917    -0.13700
C1465       C  0.00578263  0.83694102  0.33874194     0.08400
C1466       C  0.98441353  0.86699202  0.33447473    -0.13700
H1467       H  0.96499624  0.91505857  0.35568700     0.12400
H1468       H  0.53912825  0.85121174  0.41816396     0.12400
H1469       H  0.54477650  0.80787551  0.37373566     0.12400
H1470       H  0.96986657  0.87092121  0.31182527     0.12400
O1471       O  0.49621277  0.90130290  0.94750785    -0.75700
O1472       O  0.49139362  0.94435366  0.90895106    -0.54600
C1473       C  0.49422655  0.91242939  0.91740813     0.78100
O1474       O  0.89707565  0.50232377  0.56059167    -0.60300
O1475       O  0.93991116  0.49795984  0.59901157    -0.53300
C1476       C  0.90706276  0.99939679  0.58969465     0.70100
O1477       O  0.89671734  0.50106627  0.94719459    -0.74800
O1478       O  0.93949440  0.49770018  0.90819264    -0.55400
C1479       C  0.90764797  0.49912877  0.91692914     0.76100
O1480       O  0.50119912  0.90166346  0.55989681    -0.60000
O1481       O  0.49445564  0.94433487  0.59886763    -0.53100
C1482       C  0.00369560  0.91249929  0.58860839     0.72700
Zr1483     Zr  0.49601536  0.92479472  0.00382774     2.54700
O1484       O  0.95238757  0.88371617  0.00494630    -0.80500
O1485       O  0.54589036  0.88219688  0.50552008    -0.93900
Zr1486     Zr  0.92079381  0.50082953  0.00321642     2.64700
O1487       O  0.87636142  0.95914191  0.00563925    -0.98900
O1488       O  0.87062020  0.53758460  0.50376005    -0.81000
O1489       O  0.95625560  0.96325715  0.97299781    -0.84300
O1490       O  0.95783678  0.96129895  0.53538913    -2.19000
O1491       O  0.58943149  0.99732169  0.55923119    -0.67700
O1492       O  0.54676650  0.99425220  0.59810957    -0.52300
C1493       C  0.57854683  0.99506934  0.58936714     0.71100
O1494       O  0.99505461  0.59428206  0.94646950    -0.60600
O1495       O  0.99119087  0.55178791  0.90766222    -0.52600
C1496       C  0.49246818  0.58211065  0.91837689     0.72900
O1497       O  0.99169370  0.59490081  0.56050632    -0.72000
O1498       O  0.99027732  0.55226800  0.59944494    -0.50700
C1499       C  0.99160538  0.58400772  0.59076476     0.74300
O1500       O  0.58689507  0.99761100  0.94652577    -0.67300
O1501       O  0.54398113  0.99466586  0.90845442    -0.54500
C1502       C  0.57821447  0.49818688  0.91716867     0.72600
Zr1503     Zr  0.56504907  0.00001780  0.50367066     2.77500
O1504       O  0.60291602  0.54770491  0.00450077    -0.98100
O1505       O  0.61215607  0.95542093  0.00001514    -0.78900
Zr1506     Zr  0.98886652  0.57145749  0.50405769     2.70100
O1507       O  0.52761114  0.61655631  0.50168510    -0.80200
O1508       O  0.93909604  0.61114928  0.00500220    -0.99200
Zr1509     Zr  0.49357002  0.49684060  0.94075619     2.21500
Zr1510     Zr  0.99212169  0.99824448  0.56672357     2.11100
O1511       O  0.52690412  0.53501772  0.53517487    -2.47900
O1512       O  0.52763694  0.53449975  0.97155182    -0.79900
O1513       O  0.53231692  0.96225493  0.53576080    -0.72100
O1514       O  0.95472288  0.53677594  0.97051598    -2.33100
O1515       O  0.52989109  0.96088022  0.97127207    -2.29300
O1516       O  0.95444113  0.53566266  0.53666442    -0.73900
H1517       H  0.94484592  0.94714060  0.54994215     0.78100
H1518       H  0.94027236  0.55105941  0.95606108     0.79200
H1519       H  0.54054536  0.54880225  0.54940399     0.81400
H1520       H  0.54457371  0.94674799  0.95666436     0.79000
H1521       H  0.85425331  0.53495287  0.00811357     0.42100
H1522       H  0.93749873  0.62216531  0.52548843     0.41000
H1523       H  0.54872667  0.60774862  0.01101530     0.40700
H1524       H  0.60610719  0.55396928  0.48141388     0.38600
H1525       H  0.63250618  0.96830990  0.50984214     0.41800
H1526       H  0.55273040  0.87739457  0.01914027     0.36500
H1527       H  0.93864827  0.88820793  0.98464517     0.42700
H1528       H  0.89499887  0.93216117  0.51677126     0.39100
H1529       H  0.58537521  0.56813823  0.51237318     0.44000
H1530       H  0.55797869  0.88414758  0.48395244     0.42700
H1531       H  0.88218462  0.94395512  0.02475347     0.42900
H1532       H  0.94757183  0.63241090  0.48925862     0.43200
N1533       N  0.00758548  0.74844779  0.80419823    -0.37000
N1534       N  0.01104870  0.80063058  0.75295907    -0.57500
N1535       N  0.01297221  0.74751412  0.70253818    -0.37000
N1536       N  0.00638278  0.69560709  0.75384780    -0.57500
C1537       C  0.99736049  0.77738735  0.82114810     0.26600
C1538       C  0.99682749  0.72131261  0.82171121     0.26600
C1539       C  0.00563923  0.77634510  0.68448687     0.26600
C1540       C  0.00115200  0.72069819  0.68535070     0.26600
C1541       C  0.01621324  0.82002880  0.78018794     0.35200
C1542       C  0.02083423  0.81915488  0.72647196     0.35200
C1543       C  0.01307607  0.67583749  0.78083286     0.35200
C1544       C  0.01377249  0.67544070  0.72713161     0.35200
C1545       C  0.97965249  0.76853768  0.84962317    -0.22300
C1546       C  0.97935720  0.73310685  0.84999762    -0.22300
C1547       C  0.98882109  0.76781411  0.65563787    -0.22300
C1548       C  0.98579020  0.73270857  0.65628139    -0.22300
C1549       C  0.02982055  0.85085419  0.77103418    -0.23300
C1550       C  0.03286435  0.85025062  0.73695821    -0.23300
C1551       C  0.02550912  0.64312419  0.77125310    -0.23300
C1552       C  0.02582153  0.64283939  0.73710370    -0.23300
C1553       C  0.00591220  0.81123944  0.81269912    -0.18700
C1554       C  0.00435247  0.68623651  0.81354775    -0.18700
C1555       C  0.00633721  0.68553474  0.69421301    -0.18700
C1556       C  0.01478320  0.80991966  0.69310152    -0.18700
H1557       H  0.96840757  0.78579251  0.86837918     0.14300
H1558       H  0.96776647  0.71779334  0.86902209     0.14300
H1559       H  0.97945784  0.78509186  0.63623256     0.14300
H1560       H  0.97382771  0.71773573  0.63733931     0.14300
H1561       H  0.03629356  0.87183132  0.78713402     0.12500
H1562       H  0.04194224  0.87076218  0.72162278     0.12500
H1563       H  0.03281941  0.62150990  0.78713642     0.12500
H1564       H  0.03346957  0.62101078  0.72145114     0.12500
H1565       H  0.02438254  0.74703607  0.78393752     0.25800
H1566       H  0.02838250  0.74580944  0.72360222     0.25800
N1567       N  0.74164448  0.99545760  0.80472304    -0.37000
N1568       N  0.68935251  0.99030925  0.75354703    -0.57500
N1569       N  0.74199233  0.99641417  0.70347520    -0.37000
N1570       N  0.79473922  0.99720384  0.75463311    -0.57500
C1571       C  0.71475919  0.98415956  0.82222355     0.26600
C1572       C  0.77031239  0.98832213  0.82288836     0.26600
C1573       C  0.71539485  0.98605014  0.68523125     0.26600
C1574       C  0.77107738  0.98850692  0.68586946     0.26600
C1575       C  0.66908940  0.99602586  0.78056301     0.35200
C1576       C  0.66927989  0.99705928  0.72681463     0.35200
C1577       C  0.81243653  0.00693032  0.78155579     0.35200
C1578       C  0.81271480  0.00670140  0.72764363     0.35200
C1579       C  0.72644300  0.96929985  0.85163752    -0.22300
C1580       C  0.76153450  0.97170775  0.85196584    -0.22300
C1581       C  0.72766954  0.97107812  0.65590306    -0.22300
C1582       C  0.76284429  0.97235935  0.65641260    -0.22300
C1583       C  0.63602761  0.00653304  0.77095872    -0.23300
C1584       C  0.63615997  0.00720092  0.73687650    -0.23300
C1585       C  0.84157317  0.02312043  0.77159942    -0.23300
C1586       C  0.84178527  0.02291052  0.73742991    -0.23300
C1587       C  0.67975967  0.98977326  0.81358325    -0.18700
C1588       C  0.80359439  0.99881608  0.81472518    -0.18700
C1589       C  0.80430369  0.99836575  0.69453969    -0.18700
C1590       C  0.68026262  0.99184436  0.69359205    -0.18700
H1591       H  0.71118731  0.95820867  0.87101928     0.14300
H1592       H  0.77853366  0.96259618  0.87161070     0.14300
H1593       H  0.71281071  0.96040949  0.63615328     0.14300
H1594       H  0.78029506  0.96287133  0.63702316     0.14300
H1595       H  0.61406990  0.01318231  0.78675799     0.12500
H1596       H  0.61435156  0.01441791  0.72138491     0.12500
H1597       H  0.86076632  0.03384399  0.78724436     0.12500
H1598       H  0.86118655  0.03340605  0.72164672     0.12500
H1599       H  0.73990162  0.01101803  0.78368087     0.25800
H1600       H  0.74007217  0.01178230  0.72471737     0.28000
C1601       C  0.60130018  0.97205722  0.64339004    -0.13700
C1602       C  0.60463158  0.99365151  0.61576150     0.08400
C1603       C  0.63318684  0.01400735  0.61344530    -0.13700
C1604       C  0.65753458  0.01349649  0.63878836    -0.13700
C1605       C  0.65426968  0.99195724  0.66652062     0.08400
C1606       C  0.62620528  0.97080670  0.66829686    -0.13700
H1607       H  0.57968223  0.95583422  0.64546265     0.12400
H1608       H  0.63623352  0.03091008  0.59236776     0.12400
H1609       H  0.67890380  0.03005340  0.63686767     0.12400
H1610       H  0.62343893  0.95356431  0.68914627     0.12400
C1611       C  0.63360263  0.51563745  0.89310103    -0.13700
C1612       C  0.60191559  0.99412667  0.89000990     0.08400
C1613       C  0.59954369  0.97127680  0.86318056    -0.13700
C1614       C  0.62536804  0.96892384  0.83883913    -0.13700
C1615       C  0.65336646  0.99013941  0.84049241     0.08400
C1616       C  0.65848472  0.51380234  0.86800474    -0.13700
H1617       H  0.63728924  0.53195179  0.91449507     0.12400
H1618       H  0.57807152  0.95485664  0.86140656     0.12400
H1619       H  0.62330873  0.95094548  0.81844211     0.12400
H1620       H  0.68083545  0.52897244  0.87023524     0.12400
C1621       C  0.88874160  0.98346646  0.64715456    -0.13700
C1622       C  0.88110074  0.99964719  0.61666821     0.08400
C1623       C  0.85089375  0.51968738  0.61448287    -0.13700
C1624       C  0.82588593  0.51860360  0.63942120    -0.13700
C1625       C  0.83118275  0.99943074  0.66792965     0.08400
C1626       C  0.86386413  0.98289488  0.67231407    -0.13700
H1627       H  0.91369903  0.97051183  0.65125248     0.12400
H1628       H  0.84604563  0.53616842  0.59313713     0.12400
H1629       H  0.80223055  0.53442500  0.63707060     0.12400
H1630       H  0.87005359  0.96929232  0.69516159     0.12400
C1631       C  0.88793566  0.98579604  0.86196045    -0.13700
C1632       C  0.87961860  0.00112716  0.89286500     0.08400
C1633       C  0.84910477  0.51510123  0.89451385    -0.13700
C1634       C  0.82441663  0.51377914  0.86954686    -0.13700
C1635       C  0.83009029  0.00019025  0.84156244     0.08400
C1636       C  0.86333027  0.98481850  0.83686637    -0.13700
H1637       H  0.91327956  0.97372377  0.85744903     0.12400
H1638       H  0.84292947  0.52982900  0.91685633     0.12400
H1639       H  0.79979052  0.52773971  0.87298711     0.12400
H1640       H  0.87021846  0.97173111  0.81379110     0.12400
C1641       C  0.52253068  0.65955559  0.63841422    -0.13700
C1642       C  0.00300671  0.65863671  0.66814093     0.08400
C1643       C  0.98143714  0.63120662  0.67298615    -0.13700
C1644       C  0.97777469  0.60665587  0.64794651    -0.13700
C1645       C  0.99478041  0.60978559  0.61731864     0.08400
C1646       C  0.51848740  0.63606539  0.61255655    -0.13700
H1647       H  0.53872505  0.68095851  0.63446012     0.12400
H1648       H  0.96727546  0.62894973  0.69605546     0.12400
H1649       H  0.96119979  0.58562130  0.65224218     0.12400
H1650       H  0.53181173  0.63964006  0.58921456     0.12400
C1651       C  0.51463756  0.63669603  0.89638535    -0.13700
C1652       C  0.99661858  0.60932192  0.88982838     0.08400
C1653       C  0.97903613  0.60612646  0.85976464    -0.13700
C1654       C  0.98112870  0.63131535  0.83516150    -0.13700
C1655       C  0.00161693  0.65956992  0.83984401     0.08400
C1656       C  0.51740260  0.66116003  0.87122620    -0.13700
H1657       H  0.52887372  0.63963882  0.91914006     0.12400
H1658       H  0.96317080  0.58453857  0.85558553     0.12400
H1659       H  0.96677957  0.62878220  0.81242210     0.12400
H1660       H  0.53361968  0.68254274  0.87504120     0.12400
C1661       C  0.02977362  0.85683690  0.61162458    -0.13700
C1662       C  0.00807683  0.88679177  0.61559779     0.08400
C1663       C  0.98978847  0.89182333  0.64554315    -0.13700
C1664       C  0.99233610  0.86707149  0.67067977    -0.13700
C1665       C  0.01391134  0.83710395  0.66684105     0.08400
C1666       C  0.03289999  0.83234671  0.63716319    -0.13700
H1667       H  0.53713502  0.85193291  0.59069453     0.12400
H1668       H  0.97266572  0.91449872  0.64914451     0.12400
H1669       H  0.97696762  0.87105179  0.69301692     0.12400
H1670       H  0.04962968  0.80937585  0.63358561     0.12400
C1671       C  0.97952853  0.89335261  0.86051021    -0.13700
C1672       C  0.99775095  0.88823174  0.89029151     0.08400
C1673       C  0.51812322  0.85690967  0.89361203    -0.13700
C1674       C  0.02207361  0.83352864  0.86863823    -0.13700
C1675       C  0.00353382  0.83834286  0.83905875     0.08400
C1676       C  0.98213333  0.86843977  0.83523626    -0.13700
H1677       H  0.96289730  0.91635231  0.85701538     0.12400
H1678       H  0.53403402  0.85299253  0.91539714     0.12400
H1679       H  0.53779427  0.80982823  0.87082199     0.12400
H1680       H  0.96736100  0.87253243  0.81274724     0.12400
loop_ 
_geom_bond_atom_site_label_1 
_geom_bond_atom_site_label_2 
_geom_bond_distance 
_geom_bond_site_symmetry_2 
_ccdc_geom_bond_type 
O1          Zr13   2.445       .  S
O1            C3   1.289       .  A
O2         Zr459   2.415       .  S
O2            C3   1.285       .  A
C3         C1042   1.472       .  S
O4         Zr226   2.442   1_545  S
O4          C426   1.288   1_545  A
O5         Zr460   2.419       .  S
O5          C426   1.286       .  A
C6          O424   1.288       .  A
C6          O425   1.287       .  A
C6          C152   1.474       .  S
O7          Zr16   2.448   1_545  S
O7            C9   1.290   1_545  A
O8         Zr879   2.429       .  S
O8            C9   1.288       .  A
C9          C582   1.482       .  S
O10        Zr223   2.449   1_455  S
O10         C852   1.289       .  A
O11        Zr880   2.426       .  S
O11         C852   1.287   1_655  A
C12         O850   1.289       .  A
C12         O851   1.286       .  A
C12         C192   1.476       .  S
Zr13        O220   2.441   1_655  S
Zr13         O45   2.366   1_655  S
Zr13        O859   2.376       .  S
Zr13       O1070   2.376       .  S
Zr13        O253   2.369   1_655  S
Zr13        O854   2.435       .  S
Zr13        O225   2.438   1_655  S
O14        Zr853   2.435       .  S
O14          H57   0.990       .  S
O15        Zr223   2.438   1_455  S
O15          H60   0.990   1_554  S
O15         H266   0.990   1_554  S
Zr16        O214   2.442       .  S
Zr16         O44   2.372   1_565  S
Zr16        O650   2.373       .  S
Zr16        O439   2.373       .  S
Zr16        O256   2.379   1_565  S
Zr16        O437   2.435       .  S
Zr16        O228   2.436   1_565  S
O17        Zr436   2.436       .  S
O17          H61   0.990       .  S
O17         H268   0.990       .  S
O18        Zr226   2.436   1_545  S
O18         H261   0.990       .  S
O19        Zr853   2.380       .  S
O19        Zr436   2.372       .  S
O19       Zr1299   2.380       .  S
O20         Zr40   2.385       .  S
O20       Zr1063   2.372       .  S
O20        Zr646   2.380       .  S
O20          H47   0.965       .  S
O21         Zr33   2.442       .  S
O21          C23   1.288       .  A
O22        Zr880   2.425   1_455  S
O22          C23   1.287       .  A
C23         C132   1.476       .  S
O24        Zr246   2.446       .  S
O24         C866   1.289       .  A
O25        Zr879   2.418   1_545  S
O25         C866   1.285       .  A
C26         O864   1.288       .  A
C26         O865   1.287       .  A
C26        C1022   1.478       .  S
O27         Zr36   2.458       .  S
O27          C29   1.291       .  A
O28        Zr460   2.424   1_545  S
O28          C29   1.286       .  A
C29         C175   1.478       .  S
O30        Zr243   2.446       .  S
O30         C452   1.290       .  A
O31        Zr459   2.420   1_455  S
O31         C452   1.286       .  A
C32         O450   1.286   1_565  A
C32         O451   1.286       .  A
C32         C562   1.469       .  S
Zr33        O240   2.435   1_554  S
Zr33         O43   2.370       .  S
Zr33        O461   2.364       .  S
Zr33        O672   2.367   1_554  S
Zr33        O255   2.372   1_554  S
Zr33        O664   2.438       .  S
Zr33        O245   2.434   1_554  S
O34        Zr663   2.439   1_545  S
O34         H264   0.989       .  S
O34         H269   0.990       .  S
O35        Zr243   2.435       .  S
O35         H265   0.990       .  S
Zr36        O234   2.448   1_554  S
Zr36         O46   2.370       .  S
Zr36       O1092   2.377   1_554  S
Zr36        O881   2.373       .  S
Zr36        O254   2.377   1_554  S
Zr36        O877   2.435       .  S
Zr36        O248   2.435       .  S
O37        Zr876   2.434   1_455  S
O37         H263   0.990       .  S
O38        Zr246   2.436       .  S
O38         H262   0.989       .  S
O38         H272   0.990       .  S
Zr39        O422   2.421       .  S
Zr39        O848   2.432       .  S
Zr39        O865   2.429   1_565  S
Zr39        O451   2.422   1_655  S
Zr39         O42   2.387   1_665  S
Zr39       O1279   2.377       .  S
Zr39        O884   2.382   1_565  S
Zr39        O465   2.388   1_655  S
Zr40        O425   2.426       .  S
Zr40        O851   2.421       .  S
Zr40        O862   2.434       .  S
Zr40        O448   2.430       .  S
Zr40       O1301   2.387       .  S
Zr40        O883   2.380       .  S
Zr40        O466   2.384       .  S
O41        Zr453   2.359   1_545  S
O41        Zr876   2.372   1_455  S
O41       Zr1300   2.382   1_445  S
O41          H49   0.966       .  S
O42        Zr663   2.374   1_545  S
O42       Zr1086   2.369   1_455  S
O43        Zr223   2.367   1_455  S
O43        Zr880   2.376   1_455  S
O44        Zr246   2.370       .  S
O44        Zr879   2.386   1_545  S
O44          H48   0.966       .  S
O45        Zr243   2.378       .  S
O45        Zr459   2.388   1_455  S
O45          H50   0.966       .  S
O46        Zr226   2.381   1_545  S
O46        Zr460   2.385   1_545  S
H51         O228   0.990       .  S
H52         O248   0.990       .  S
H53         O247   0.990       .  S
H54         O244   0.990       .  S
H55         O245   0.990       .  S
H56         O225   0.990       .  S
H58         O227   0.990       .  S
H59         O244   0.990       .  S
H62         O248   0.990   1_556  S
N63          C68   1.352       .  A
N63          C67   1.352       .  A
N63          H95   1.040       .  S
N64          C71   1.350       .  A
N64          C72   1.350       .  A
N65          C70   1.354       .  A
N65          C69   1.354       .  A
N65          H96   1.041       .  S
N66          C73   1.351       .  A
N66          C74   1.352       .  A
C67          C75   1.387       .  A
C67          C83   1.413       .  A
C68          C84   1.414       .  A
C68          C76   1.388       .  A
C69          C77   1.386       .  A
C69          C86   1.415       .  A
C70          C85   1.417       .  A
C70          C78   1.387       .  A
C71          C83   1.410       .  A
C71          C79   1.386       .  A
C72          C86   1.410       .  A
C72          C80   1.386       .  A
C73          C81   1.386       .  A
C73          C84   1.413       .  A
C74          C82   1.386       .  A
C74          C85   1.413       .  A
C75          C76   1.375       .  A
C75          H87   1.082       .  S
C76          H88   1.082       .  S
C77          C78   1.376       .  A
C77          H89   1.082       .  S
C78          H90   1.082       .  S
C79          C80   1.374       .  A
C79          H91   1.082       .  S
C80          H92   1.082       .  S
C81          C82   1.374       .  A
C81          H93   1.082       .  S
C82          H94   1.082       .  S
C83         C205   1.483       .  S
C84         C185   1.489       .  S
C85         C172   1.495       .  S
C86         C195   1.489       .  S
N97         C102   1.355       .  A
N97         C101   1.352       .  A
N97         H129   1.042       .  S
N98         C105   1.350       .  A
N98         C106   1.351       .  A
N99         C104   1.352       .  A
N99         C103   1.354       .  A
N99         H130   1.042       .  S
N100        C107   1.352       .  A
N100        C108   1.350       .  A
C101        C109   1.387       .  A
C101        C117   1.414       .  A
C102        C118   1.417       .  A
C102        C110   1.387       .  A
C103        C111   1.387       .  A
C103        C120   1.417       .  A
C104        C119   1.416       .  A
C104        C112   1.387       .  A
C105        C117   1.412       .  A
C105        C113   1.386       .  A
C106        C120   1.413       .  A
C106        C114   1.387       .  A
C107        C115   1.386       .  A
C107        C118   1.415       .  A
C108        C116   1.386       .  A
C108        C119   1.412       .  A
C109        C110   1.377       .  A
C109        H121   1.082       .  S
C110        H122   1.082       .  S
C111        C112   1.377       .  A
C111        H123   1.082       .  S
C112        H124   1.082       .  S
C113        C114   1.375       .  A
C113        H125   1.082       .  S
C114        H126   1.082       .  S
C115        C116   1.375       .  A
C115        H127   1.082       .  S
C116        H128   1.082       .  S
C117        C145   1.488       .  S
C118        C165   1.501       .  S
C119        C155   1.490       .  S
C120        C135   1.495       .  S
C131        C132   1.403       .  A
C131        C136   1.398       .  A
C131        H137   1.083       .  S
C132        C133   1.405       .  A
C133        C134   1.398       .  A
C133        H138   1.083       .  S
C134        C135   1.406       .  A
C134        H139   1.083       .  S
C135        C136   1.407       .  A
C136        H140   1.083       .  S
C141        C146   1.396       .  A
C141        C562   1.404   1_545  A
C141        H147   1.083       .  S
C142        C452   1.474       .  S
C142        C143   1.405       .  A
C142        C561   1.403       .  A
C143        C144   1.399       .  A
C143        H148   1.083       .  S
C144        C145   1.405       .  A
C144        H149   1.083       .  S
C145        C566   1.404       .  A
C146        C565   1.404   1_545  A
C146        H150   1.083       .  S
C151        C152   1.404       .  A
C151        C156   1.399       .  A
C151        H157   1.083       .  S
C152        C573   1.404       .  A
C153        C154   1.396       .  A
C153        C572   1.405       .  A
C153        H158   1.083       .  S
C154        C575   1.404       .  A
C154        H159   1.083       .  S
C155        C156   1.406       .  A
C155        C574   1.404       .  A
C156        H160   1.083       .  S
C161        C162   1.406       .  A
C161        C166   1.402       .  A
C161        H167   1.083       .  S
C162        C429   1.486       .  S
C162        C583   1.406       .  A
C163        C164   1.399       .  A
C163        C582   1.406   1_545  A
C163        H168   1.083       .  S
C164        C585   1.405   1_545  A
C164        H169   1.083       .  S
C165        C166   1.408       .  A
C165        C584   1.407       .  A
C166        H170   1.083       .  S
C171        C176   1.398       .  A
C171       C1012   1.405       .  A
C171        H177   1.083       .  S
C172        C173   1.407       .  A
C172       C1011   1.405       .  A
C173        C174   1.400       .  A
C173        H178   1.083       .  S
C174        C175   1.404       .  A
C174        H179   1.083       .  S
C175       C1016   1.404       .  A
C176       C1015   1.405       .  A
C176        H180   1.083       .  S
C181        C186   1.397       .  A
C181       C1022   1.405   1_455  A
C181        H187   1.083       .  S
C182        C866   1.473       .  S
C182        C183   1.404       .  A
C182       C1021   1.403       .  A
C183        C184   1.398       .  A
C183        H188   1.083       .  S
C184        C185   1.405       .  A
C184        H189   1.083       .  S
C185       C1026   1.404       .  A
C186       C1025   1.404       .  A
C186        H190   1.083       .  S
C191        C192   1.405       .  A
C191        C196   1.399       .  A
C191       H1037   1.083       .  S
C192        C193   1.405       .  A
C193        C194   1.399       .  A
C193        H198   1.083       .  S
C194        C195   1.405       .  A
C194        H199   1.083       .  S
C195        C196   1.404       .  A
C196        H200   1.083       .  S
H197       C1031   1.083       .  S
C201        C202   1.404       .  A
C201        C206   1.397       .  A
C201        H207   1.083       .  S
C202        C843   1.470       .  S
C202       C1043   1.403       .  A
C203       C1042   1.403   1_455  A
C203       C1044   1.395       .  A
C203        H208   1.083       .  S
C204        C205   1.403       .  A
C204       C1043   1.395       .  A
C204       H1049   1.083       .  S
C205        C206   1.404       .  A
C206        H210   1.083       .  S
H209       C1044   1.083       .  S
O211       Zr223   2.444   1_556  S
O211        C213   1.288       .  A
O212       Zr669   2.420       .  S
O212        C213   1.285       .  A
C213       C1252   1.474       .  S
O214        C636   1.288       .  A
O215       Zr670   2.422       .  S
O215        C636   1.286       .  A
C216        O634   1.286       .  A
C216        O635   1.285       .  A
C216        C362   1.466       .  S
O217       Zr226   2.459   1_556  S
O217        C219   1.291       .  A
O218      Zr1089   2.433       .  S
O218        C219   1.288       .  A
C219        C792   1.488       .  S
O220       C1062   1.288       .  A
O221      Zr1090   2.421       .  S
O221       C1062   1.286   1_655  A
C222       O1060   1.291       .  A
C222       O1061   1.286       .  A
C222        C402   1.486       .  S
Zr223      O1069   2.379   1_554  S
Zr223       O860   2.374       .  S
Zr223       O255   2.374   1_654  S
Zr223      O1064   2.434       .  S
O224      Zr1063   2.433       .  S
O224        H267   0.990       .  S
O225        H270   0.990       .  S
Zr226       O440   2.382       .  S
Zr226       O649   2.372   1_554  S
Zr226       O254   2.371   1_564  S
Zr226       O647   2.436       .  S
O227       Zr646   2.436       .  S
O227        H271   0.990       .  S
O229      Zr1063   2.378   1_556  S
O229       Zr646   2.376   1_556  S
O229      Zr1509   2.378       .  S
O230       Zr853   2.370       .  S
O230       Zr436   2.379       .  S
O230       Zr250   2.381       .  S
O230        H257   0.965       .  S
O231       Zr243   2.455       .  S
O231        C233   1.291       .  A
O232      Zr1090   2.432   1_455  S
O232        C233   1.288       .  A
C233        C342   1.485       .  S
O234       C1076   1.289       .  A
O235      Zr1089   2.423   1_545  S
O235       C1076   1.286       .  A
C236       O1074   1.291       .  A
C236       O1075   1.285       .  A
C236       C1232   1.477       .  S
O237       Zr246   2.447       .  S
O237        C239   1.289       .  A
O238       Zr670   2.425   1_545  S
O238        C239   1.286       .  A
C239        C385   1.473       .  S
O240        C662   1.287       .  A
O241       Zr669   2.423   1_455  S
O241        C662   1.286       .  A
C242        O660   1.288       .  A
C242        O661   1.286   1_545  A
C242        C772   1.473       .  S
Zr243       O671   2.361       .  S
Zr243       O462   2.367       .  S
Zr243       O253   2.374       .  S
Zr243       O454   2.435       .  S
O244       Zr453   2.438   1_545  S
Zr246       O882   2.375       .  S
Zr246      O1091   2.372       .  S
Zr246       O256   2.373       .  S
Zr246      O1087   2.435       .  S
O247      Zr1086   2.437   1_455  S
Zr249       O632   2.426       .  S
Zr249      O1058   2.424       .  S
Zr249      O1075   2.414   1_565  S
Zr249       O661   2.420   1_655  S
Zr249      O1489   2.376       .  S
Zr249       O252   2.386   1_665  S
Zr249      O1094   2.385   1_565  S
Zr249       O675   2.382   1_655  S
Zr250       O635   2.414       .  S
Zr250      O1061   2.422       .  S
Zr250      O1072   2.420       .  S
Zr250       O658   2.420       .  S
Zr250      O1511   2.381       .  S
Zr250      O1093   2.378       .  S
Zr250       O676   2.388       .  S
O251       Zr663   2.363   1_545  S
O251      Zr1086   2.368   1_455  S
O251      Zr1510   2.384   1_445  S
O251        H259   0.966       .  S
O252       Zr453   2.371   1_546  S
O252       Zr876   2.370   1_456  S
O253      Zr1090   2.379   1_455  S
O254      Zr1089   2.386   1_545  S
O254        H258   0.966       .  S
O255       Zr669   2.387   1_455  S
O255        H260   0.966       .  S
O256       Zr670   2.388   1_545  S
N273        C278   1.352       .  A
N273        C277   1.351       .  A
N273        H305   1.042       .  S
N274        C281   1.350       .  A
N274        C282   1.351       .  A
N275        C280   1.352       .  A
N275        C279   1.355       .  A
N275        H306   1.042       .  S
N276        C283   1.351       .  A
N276        C284   1.349       .  A
C277        C285   1.388       .  A
C277        C293   1.414       .  A
C278        C294   1.412       .  A
C278        C286   1.386       .  A
C279        C287   1.387       .  A
C279        C296   1.417       .  A
C280        C295   1.416       .  A
C280        C288   1.387       .  A
C281        C293   1.413       .  A
C281        C289   1.386       .  A
C282        C296   1.412       .  A
C282        C290   1.385       .  A
C283        C291   1.385       .  A
C283        C294   1.411       .  A
C284        C292   1.387       .  A
C284        C295   1.412       .  A
C285        C286   1.377       .  A
C285        H297   1.082       .  S
C286        H298   1.082       .  S
C287        C288   1.377       .  A
C287        H299   1.082       .  S
C288        H300   1.082       .  S
C289        C290   1.376       .  A
C289        H301   1.082       .  S
C290        H302   1.082       .  S
C291        C292   1.375       .  A
C291        H303   1.082       .  S
C292        H304   1.082       .  S
C293        C415   1.488       .  S
C294        C395   1.490       .  S
C295        C382   1.489       .  S
C296        C405   1.497       .  S
N307        C312   1.354       .  A
N307        C311   1.352       .  A
N307        H339   1.041       .  S
N308        C315   1.350       .  A
N308        C316   1.352       .  A
N309        C314   1.351       .  A
N309        C313   1.356       .  A
N309        H340   1.042       .  S
N310        C317   1.353       .  A
N310        C318   1.350       .  A
C311        C319   1.388       .  A
C311        C327   1.417       .  A
C312        C328   1.414       .  A
C312        C320   1.386       .  A
C313        C321   1.386       .  A
C313        C330   1.416       .  A
C314        C329   1.415       .  A
C314        C322   1.388       .  A
C315        C327   1.413       .  A
C315        C323   1.387       .  A
C316        C330   1.411       .  A
C316        C324   1.384       .  A
C317        C325   1.385       .  A
C317        C328   1.412       .  A
C318        C326   1.388       .  A
C318        C329   1.414       .  A
C319        C320   1.378       .  A
C319        H331   1.082       .  S
C320        H332   1.082       .  S
C321        C322   1.376       .  A
C321        H333   1.082       .  S
C322        H334   1.082       .  S
C323        C324   1.373       .  A
C323        H335   1.082       .  S
C324        H336   1.082       .  S
C325        C326   1.373       .  A
C325        H337   1.082       .  S
C326        H338   1.082       .  S
C327        C355   1.489       .  S
C328        C375   1.492       .  S
C329        C365   1.484       .  S
C330        C345   1.501       .  S
C341        C342   1.405       .  A
C341        C346   1.401       .  A
C341        H347   1.083       .  S
C342        C343   1.406       .  A
C343        C344   1.401       .  A
C343        H348   1.083       .  S
C344        C345   1.406       .  A
C344        H349   1.083       .  S
C345        C346   1.408       .  A
C346        H350   1.083       .  S
C351        C772   1.404       .  A
C351        C356   1.396       .  A
C351        H357   1.083       .  S
C352        C662   1.474       .  S
C352        C771   1.405       .  A
C352        C353   1.404       .  A
C353        C354   1.397       .  A
C353        H358   1.083       .  S
C354        C355   1.406       .  A
C354        H359   1.083       .  S
C355        C776   1.404       .  A
C356        C775   1.405       .  A
C356        H360   1.083       .  S
C361        C362   1.403       .  A
C361        C366   1.395       .  A
C361        H367   1.083       .  S
C362        C783   1.402       .  A
C363        C782   1.404   1_545  A
C363        C364   1.396       .  A
C363        H368   1.083       .  S
C364        C785   1.405   1_545  A
C364        H369   1.083       .  S
C365        C784   1.404       .  A
C365        C366   1.404       .  A
C366        H370   1.083       .  S
C371        C372   1.405       .  A
C371        C376   1.401       .  A
C371        H377   1.083       .  S
C372        C639   1.478       .  S
C372        C793   1.405       .  A
C373        C792   1.406   1_545  A
C373        C374   1.402       .  A
C373        H378   1.083       .  S
C374        C795   1.407   1_545  A
C374        H379   1.083       .  S
C375        C794   1.405       .  A
C375        C376   1.405       .  A
C376        H380   1.083       .  S
C381       C1222   1.405       .  A
C381        C386   1.397       .  A
C381        H387   1.083       .  S
C382       C1221   1.404       .  A
C382        C383   1.406       .  A
C383        C384   1.399       .  A
C383        H388   1.083       .  S
C384        C385   1.403       .  A
C384        H389   1.083       .  S
C385       C1226   1.404       .  A
C386       C1225   1.404   1_455  A
C386        H390   1.083       .  S
C391       C1232   1.404   1_455  A
C391        C396   1.397       .  A
C391        H397   1.083       .  S
C392       C1076   1.476       .  S
C392       C1231   1.404       .  A
C392        C393   1.405       .  A
C393        C394   1.400       .  A
C393        H398   1.083       .  S
C394        C395   1.405       .  A
C394        H399   1.083       .  S
C395       C1236   1.404       .  A
C396       C1235   1.405       .  A
C396        H400   1.083       .  S
C401        C402   1.406       .  A
C401        C406   1.402       .  A
C401       H1247   1.083       .  S
C402        C403   1.406       .  A
C403        C404   1.401       .  A
C403        H408   1.083       .  S
C404        C405   1.406       .  A
C404        H409   1.083       .  S
C405        C406   1.406       .  A
C406        H410   1.083       .  S
H407       C1241   1.083       .  S
C411        C412   1.405       .  A
C411        C416   1.396       .  A
C411        H417   1.083       .  S
C412       C1053   1.477       .  S
C412       C1253   1.405       .  A
C413       C1252   1.404   1_455  A
C413       C1254   1.396       .  A
C413        H418   1.083       .  S
C414       C1253   1.397       .  A
C414        C415   1.405       .  A
C414       H1259   1.083       .  S
C415        C416   1.404       .  A
C416        H420   1.083       .  S
H419       C1254   1.083       .  S
O421       Zr433   2.446       .  S
O421        C423   1.289       .  A
O422        C423   1.286       .  A
C423       C1462   1.475       .  S
O424       Zr646   2.439       .  S
C426        C572   1.475   1_565  S
O427       Zr436   2.448       .  S
O427        C429   1.289       .  A
O428      Zr1299   2.438       .  S
O428        C429   1.289       .  A
O430       Zr643   2.447   1_455  S
O430       C1272   1.289   1_455  A
O431      Zr1300   2.419       .  S
O431       C1272   1.285       .  A
C432       O1270   1.289       .  A
C432       O1271   1.284       .  A
C432        C612   1.479       .  S
Zr433       O640   2.448   1_655  S
Zr433      O1279   2.376       .  S
Zr433      O1490   2.377       .  S
Zr433       O673   2.368   1_655  S
Zr433       O465   2.369   1_655  S
Zr433      O1274   2.435       .  S
Zr433       O645   2.438   1_655  S
O434      Zr1273   2.436       .  S
O434        H477   0.990       .  S
O435       Zr643   2.438   1_455  S
O435        H686   0.990       .  S
O435        H480   0.990   1_554  S
Zr436       O634   2.432       .  S
Zr436       O464   2.373       .  S
Zr436       O676   2.379       .  S
Zr436       O648   2.434       .  S
O437        H688   0.990       .  S
O437        H481   0.990       .  S
O438       Zr646   2.433       .  S
O438        H681   0.990       .  S
O439      Zr1273   2.376       .  S
O439       Zr879   2.376       .  S
O440      Zr1483   2.371       .  S
O440       Zr460   2.386       .  S
O440        H467   0.965       .  S
O441       Zr453   2.449       .  S
O441        C443   1.289       .  A
O442      Zr1300   2.430   1_455  S
O442        C443   1.287       .  A
C443        C552   1.481       .  S
O444       Zr666   2.448       .  S
O444       C1286   1.289       .  A
O445      Zr1299   2.425       .  S
O445       C1286   1.287       .  A
C446       O1284   1.289       .  A
C446       O1285   1.286       .  A
C446       C1442   1.477       .  S
O447       Zr456   2.441       .  S
O447        C449   1.288       .  A
O448        C449   1.288       .  A
C449        C595   1.473       .  S
O450       Zr663   2.435   1_545  S
Zr453       O660   2.437   1_564  S
Zr453       O675   2.374   1_554  S
Zr453       O463   2.373       .  S
Zr453       O665   2.434   1_554  S
O454        H684   0.990       .  S
O454        H689   0.990       .  S
O455       Zr663   2.436       .  S
O455        H685   0.990       .  S
Zr456       O654   2.442   1_554  S
Zr456      O1512   2.369   1_554  S
Zr456      O1301   2.373       .  S
Zr456       O466   2.371       .  S
Zr456       O674   2.370   1_554  S
Zr456      O1297   2.433       .  S
Zr456       O668   2.436       .  S
O457      Zr1296   2.439   1_456  S
O457        H683   0.990   1_556  S
O458       Zr666   2.436       .  S
O458        H682   0.990       .  S
O458        H692   0.990       .  S
Zr459      O1268   2.426       .  S
Zr459      O1285   2.425       .  S
Zr459       O859   2.374       .  S
Zr459       O462   2.381   1_655  S
Zr459      O1304   2.383       .  S
Zr460      O1271   2.410       .  S
Zr460      O1282   2.428       .  S
Zr460       O881   2.383   1_565  S
Zr460      O1303   2.380       .  S
O461      Zr1296   2.371   1_455  S
O461       Zr880   2.388   1_455  S
O461        H469   0.966       .  S
O462      Zr1506   2.368   1_455  S
O463       Zr643   2.374   1_455  S
O463      Zr1300   2.381   1_455  S
O464       Zr666   2.378       .  S
O464      Zr1299   2.386       .  S
O464        H468   0.966       .  S
O465       Zr663   2.372       .  S
O465        H470   0.966       .  S
O466       Zr646   2.374       .  S
H471        O648   0.990       .  S
H472        O668   0.990       .  S
H473        O667   0.990       .  S
H474        O664   0.990   1_556  S
H475        O665   0.990       .  S
H476        O645   0.990       .  S
H478        O647   0.990   1_556  S
H479        O664   0.990       .  S
H482        O668   0.990   1_556  S
N483        C488   1.354       .  A
N483        C487   1.353       .  A
N483        H515   1.042       .  S
N484        C491   1.351       .  A
N484        C492   1.351       .  A
N485        C490   1.353       .  A
N485        C489   1.353       .  A
N485        H516   1.042       .  S
N486        C493   1.352       .  A
N486        C494   1.351       .  A
C487        C495   1.387       .  A
C487        C503   1.416       .  A
C488        C504   1.418       .  A
C488        C496   1.387       .  A
C489        C497   1.388       .  A
C489        C506   1.417       .  A
C490        C505   1.414       .  A
C490        C498   1.386       .  A
C491        C503   1.413       .  A
C491        C499   1.386       .  A
C492        C506   1.414       .  A
C492        C500   1.386       .  A
C493        C501   1.387       .  A
C493        C504   1.414       .  A
C494        C502   1.385       .  A
C494        C505   1.411       .  A
C495        C496   1.377       .  A
C495        H507   1.082       .  S
C496        H508   1.082       .  S
C497        C498   1.375       .  A
C497        H509   1.082       .  S
C498        H510   1.082       .  S
C499        C500   1.376       .  A
C499        H511   1.082       .  S
C500        H512   1.082       .  S
C501        C502   1.374       .  A
C501        H513   1.082       .  S
C502        H514   1.082       .  S
C503        C625   1.492       .  S
C504        C605   1.500       .  S
C505        C592   1.493       .  S
C506        C615   1.493       .  S
N517        C522   1.354       .  A
N517        C521   1.350       .  A
N517        H549   1.042   1_565  S
N518        C525   1.349   1_565  A
N518        C526   1.352   1_565  A
N519        C524   1.351       .  A
N519        C523   1.354       .  A
N519        H550   1.042   1_565  S
N520        C527   1.351   1_565  A
N520        C528   1.348   1_565  A
C521        C529   1.387       .  A
C521        C537   1.413       .  A
C522        C538   1.416       .  A
C522        C530   1.387       .  A
C523        C531   1.386       .  A
C523        C540   1.414       .  A
C524        C539   1.415       .  A
C524        C532   1.388       .  A
C525        C537   1.412   1_545  A
C525        C533   1.387       .  A
C526        C540   1.412   1_545  A
C526        C534   1.386       .  A
C527        C535   1.386       .  A
C527        C538   1.411   1_545  A
C528        C536   1.387       .  A
C528        C539   1.411   1_545  A
C529        C530   1.378       .  A
C529        H541   1.082       .  S
C530        H542   1.082       .  S
C531        C532   1.378       .  A
C531        H543   1.082       .  S
C532        H544   1.082       .  S
C533        C534   1.374       .  A
C533        H545   1.082       .  S
C534        H546   1.082       .  S
C535        C536   1.375       .  A
C535        H547   1.082       .  S
C536        H548   1.082       .  S
C537        C565   1.483       .  S
C538        C585   1.496       .  S
C539        C575   1.488   1_565  S
C540        C555   1.497       .  S
C551        C552   1.405       .  A
C551        C556   1.401       .  A
C551        H557   1.083       .  S
C552        C553   1.405   1_565  A
C553        C554   1.399       .  A
C553        H558   1.083       .  S
C554        C555   1.406   1_545  A
C554        H559   1.083       .  S
C555        C556   1.407       .  A
C556        H560   1.083       .  S
C561        C566   1.396       .  A
C561        H567   1.083       .  S
C562        C563   1.403       .  A
C563        C564   1.396       .  A
C563        H568   1.083       .  S
C564        C565   1.404       .  A
C564        H569   1.083       .  S
C566        H570   1.083       .  S
C571        C572   1.404   1_565  A
C571        C576   1.397       .  A
C571        H577   1.083       .  S
C573        C574   1.396       .  A
C573        H578   1.083       .  S
C574        H579   1.083       .  S
C575        C576   1.405   1_545  A
C576        H580   1.083       .  S
C581        C582   1.405       .  A
C581        C586   1.400       .  A
C581        H587   1.083       .  S
C583        C584   1.401       .  A
C583        H588   1.083       .  S
C584        H589   1.083       .  S
C585        C586   1.407       .  A
C586        H590   1.083       .  S
C591       C1432   1.404       .  A
C591        C596   1.397       .  A
C591        H597   1.083       .  S
C592       C1431   1.404       .  A
C592        C593   1.408       .  A
C593        C594   1.400       .  A
C593        H598   1.083       .  S
C594        C595   1.403       .  A
C594        H599   1.083       .  S
C595       C1436   1.404       .  A
C596       C1435   1.403   1_455  A
C596        H600   1.083       .  S
C601       C1442   1.404   1_455  A
C601        C606   1.397       .  A
C601        H607   1.083       .  S
C602       C1286   1.481       .  S
C602       C1441   1.404       .  A
C602        C603   1.405       .  A
C603        C604   1.401       .  A
C603        H608   1.083       .  S
C604        C605   1.409       .  A
C604        H609   1.083       .  S
C605       C1446   1.406       .  A
C606       C1445   1.405   1_455  A
C606        H610   1.083       .  S
C611        C612   1.405       .  A
C611        C616   1.399       .  A
C611       H1457   1.083       .  S
C612        C613   1.406       .  A
C613        C614   1.397       .  A
C613        H618   1.083       .  S
C614        C615   1.405       .  A
C614        H619   1.083       .  S
C615        C616   1.406       .  A
C616        H620   1.083       .  S
H617       C1451   1.083       .  S
C621        C622   1.405       .  A
C621        C626   1.399       .  A
C621        H627   1.083       .  S
C622       C1263   1.481       .  S
C622       C1463   1.406       .  A
C623       C1462   1.404   1_455  A
C623       C1464   1.395       .  A
C623        H628   1.083       .  S
C624       C1463   1.399       .  A
C624        C625   1.405       .  A
C624       H1469   1.083       .  S
C625        C626   1.405       .  A
C626        H630   1.083       .  S
H629       C1464   1.083       .  S
O631       Zr643   2.450   1_556  S
O631        C633   1.289       .  A
O632        C633   1.286       .  A
C633       C1672   1.480       .  S
C636        C782   1.476       .  S
O637       Zr646   2.451   1_556  S
O637        C639   1.289       .  A
O638      Zr1509   2.427       .  S
O638        C639   1.287       .  A
O640       C1482   1.289       .  A
O641      Zr1510   2.427       .  S
O641       C1482   1.288   1_655  A
C642       O1480   1.290       .  A
C642       O1481   1.286       .  A
C642        C822   1.478       .  S
Zr643      O1489   2.377   1_554  S
Zr643      O1280   2.377       .  S
Zr643       O675   2.367   1_654  S
Zr643      O1484   2.435       .  S
O644      Zr1483   2.434       .  S
O644        H687   0.990       .  S
O645        H690   0.990       .  S
Zr646       O674   2.367   1_554  S
O647        H691   0.990       .  S
O649      Zr1483   2.379   1_556  S
O649      Zr1089   2.380       .  S
O650      Zr1273   2.371       .  S
O650       Zr670   2.381       .  S
O650        H677   0.964       .  S
O651       Zr663   2.446       .  S
O651        C653   1.289       .  A
O652      Zr1510   2.420   1_455  S
O652        C653   1.286       .  A
C653        C762   1.474       .  S
O654       C1496   1.288       .  A
O655      Zr1509   2.427       .  S
O655       C1496   1.287       .  A
C656       O1494   1.287       .  A
C656       O1495   1.286       .  A
C656       C1652   1.473       .  S
O657       Zr666   2.455       .  S
O657        C659   1.291       .  A
O658        C659   1.286       .  A
C659        C805   1.476       .  S
Zr663       O673   2.364       .  S
Zr666      O1302   2.371       .  S
Zr666      O1511   2.370       .  S
Zr666       O676   2.378       .  S
Zr666      O1507   2.434       .  S
O667      Zr1506   2.436   1_455  S
Zr669      O1478   2.422       .  S
Zr669      O1495   2.421       .  S
Zr669      O1069   2.378       .  S
Zr669       O672   2.382   1_655  S
Zr669      O1514   2.385       .  S
Zr670      O1481   2.423       .  S
Zr670      O1492   2.430       .  S
Zr670      O1091   2.387   1_565  S
Zr670      O1513   2.379       .  S
O671      Zr1506   2.369   1_455  S
O671      Zr1090   2.384   1_455  S
O671        H679   0.966       .  S
O672      Zr1296   2.371   1_456  S
O673      Zr1510   2.375   1_455  S
O674      Zr1509   2.381       .  S
O674        H678   0.966       .  S
O675        H680   0.966       .  S
N693        C698   1.353       .  A
N693        C697   1.352       .  A
N693        H725   1.041       .  S
N694        C701   1.350       .  A
N694        C702   1.350       .  A
N695        C700   1.354       .  A
N695        C699   1.355       .  A
N695        H726   1.041       .  S
N696        C703   1.352       .  A
N696        C704   1.351       .  A
C697        C705   1.387       .  A
C697        C713   1.413       .  A
C698        C714   1.415       .  A
C698        C706   1.387       .  A
C699        C707   1.386       .  A
C699        C716   1.417       .  A
C700        C715   1.418       .  A
C700        C708   1.388       .  A
C701        C713   1.411       .  A
C701        C709   1.386       .  A
C702        C716   1.412       .  A
C702        C710   1.386       .  A
C703        C711   1.386       .  A
C703        C714   1.413       .  A
C704        C712   1.387       .  A
C704        C715   1.415       .  A
C705        C706   1.376       .  A
C705        H717   1.082       .  S
C706        H718   1.082       .  S
C707        C708   1.375       .  A
C707        H719   1.082       .  S
C708        H720   1.082       .  S
C709        C710   1.374       .  A
C709        H721   1.082       .  S
C710        H722   1.082       .  S
C711        C712   1.375       .  A
C711        H723   1.082       .  S
C712        H724   1.082       .  S
C713        C835   1.485       .  S
C714        C815   1.493       .  S
C715        C802   1.496       .  S
C716        C825   1.494       .  S
N727        C732   1.355       .  A
N727        C731   1.352       .  A
N727        H759   1.042   1_565  S
N728        C735   1.350   1_565  A
N728        C736   1.351   1_565  A
N729        C734   1.352       .  A
N729        C733   1.354       .  A
N729        H760   1.041   1_565  S
N730        C737   1.353   1_565  A
N730        C738   1.351   1_565  A
C731        C739   1.387       .  A
C731        C747   1.416       .  A
C732        C748   1.416       .  A
C732        C740   1.386       .  A
C733        C741   1.386       .  A
C733        C750   1.415       .  A
C734        C749   1.418       .  A
C734        C742   1.388       .  A
C735        C747   1.412   1_545  A
C735        C743   1.387       .  A
C736        C750   1.411   1_545  A
C736        C744   1.386       .  A
C737        C745   1.385       .  A
C737        C748   1.414   1_545  A
C738        C746   1.387       .  A
C738        C749   1.416   1_545  A
C739        C740   1.377       .  A
C739        H751   1.082       .  S
C740        H752   1.082       .  S
C741        C742   1.377       .  A
C741        H753   1.082       .  S
C742        H754   1.082       .  S
C743        C744   1.374       .  A
C743        H755   1.082       .  S
C744        H756   1.082       .  S
C745        C746   1.375       .  A
C745        H757   1.082       .  S
C746        H758   1.082       .  S
C747        C775   1.490   1_565  S
C748        C795   1.501       .  S
C749        C785   1.494       .  S
C750        C765   1.490       .  S
C761        C762   1.404       .  A
C761        C766   1.399       .  A
C761        H767   1.083       .  S
C762        C763   1.404   1_565  A
C763        C764   1.398       .  A
C763        H768   1.083       .  S
C764        C765   1.404   1_545  A
C764        H769   1.083       .  S
C765        C766   1.406       .  A
C766        H770   1.083       .  S
C771        C776   1.395       .  A
C771        H777   1.083       .  S
C772        C773   1.404   1_545  A
C773        C774   1.397       .  A
C773        H778   1.083       .  S
C774        C775   1.406   1_565  A
C774        H779   1.083       .  S
C776        H780   1.083       .  S
C781        C782   1.404       .  A
C781        C786   1.399       .  A
C781        H787   1.083       .  S
C783        C784   1.395       .  A
C783        H788   1.083       .  S
C784        H789   1.083       .  S
C785        C786   1.407       .  A
C786        H790   1.083       .  S
C791        C792   1.406       .  A
C791        C796   1.403       .  A
C791        H797   1.083       .  S
C793        C794   1.401       .  A
C793        H798   1.083       .  S
C794        H799   1.083       .  S
C795        C796   1.407       .  A
C796        H800   1.083       .  S
C801       C1642   1.404       .  A
C801        C806   1.395       .  A
C801        H807   1.083       .  S
C802       C1641   1.407       .  A
C802        C803   1.406       .  A
C803        C804   1.398       .  A
C803        H808   1.083       .  S
C804        C805   1.404       .  A
C804        H809   1.083       .  S
C805       C1646   1.404       .  A
C806       C1645   1.403   1_455  A
C806        H810   1.083       .  S
C811       C1652   1.405   1_455  A
C811        C816   1.396       .  A
C811        H817   1.083       .  S
C812       C1496   1.477       .  S
C812       C1651   1.405       .  A
C812        C813   1.404       .  A
C813        C814   1.400       .  A
C813        H818   1.083       .  S
C814        C815   1.406       .  A
C814        H819   1.083       .  S
C815       C1656   1.405       .  A
C816       C1655   1.403       .  A
C816        H820   1.083       .  S
C821        C822   1.404       .  A
C821        C826   1.398       .  A
C821       H1667   1.083       .  S
C822        C823   1.405       .  A
C823        C824   1.400       .  A
C823        H828   1.083       .  S
C824        C825   1.407       .  A
C824        H829   1.083       .  S
C825        C826   1.405       .  A
C826        H830   1.083       .  S
H827       C1661   1.083       .  S
C831        C832   1.404       .  A
C831        C836   1.398       .  A
C831        H837   1.083       .  S
C832       C1473   1.471       .  S
C832       C1673   1.403       .  A
C833       C1672   1.405   1_455  A
C833       C1674   1.398       .  A
C833        H838   1.083       .  S
C834       C1673   1.395       .  A
C834        C835   1.403       .  A
C834       H1679   1.083       .  S
C835        C836   1.405       .  A
C836        H840   1.083       .  S
H839       C1674   1.083       .  S
O841       Zr853   2.446       .  S
O841        C843   1.289       .  A
O842      Zr1299   2.412       .  S
O842        C843   1.284       .  A
O844      Zr1066   2.439       .  S
O844       C1266   1.287       .  A
O845      Zr1300   2.416       .  S
O845       C1266   1.285   1_565  A
C846       O1264   1.288       .  A
C846       O1265   1.285       .  A
C846        C992   1.472       .  S
O847       Zr856   2.444       .  S
O847        C849   1.288       .  A
O848        C849   1.288       .  A
C849       C1422   1.480       .  S
O850      Zr1063   2.451       .  S
C852       C1032   1.481       .  S
Zr853      O1060   2.462       .  S
Zr853      O1093   2.369       .  S
Zr853       O885   2.376       .  S
Zr853      O1065   2.439       .  S
O854        H897   0.990       .  S
O855      Zr1063   2.439       .  S
O855       H1106   0.990       .  S
O855        H900   0.990   1_554  S
Zr856      O1054   2.444   1_565  S
Zr856      O1490   2.378       .  S
Zr856      O1279   2.372       .  S
Zr856       O884   2.376   1_565  S
Zr856      O1096   2.375   1_565  S
Zr856      O1277   2.436       .  S
Zr856      O1068   2.434   1_565  S
O857      Zr1276   2.436       .  S
O857       H1108   0.990       .  S
O857        H901   0.990       .  S
O858      Zr1066   2.436       .  S
O858       H1101   0.990       .  S
O859      Zr1276   2.369       .  S
O860      Zr1486   2.382       .  S
O860       Zr880   2.383       .  S
O860        H887   0.965       .  S
O861       Zr873   2.437       .  S
O861        C863   1.288       .  A
O862        C863   1.288       .  A
C863        C972   1.476       .  S
O864      Zr1086   2.442       .  S
O867       Zr876   2.449       .  S
O867        C869   1.290       .  A
O868      Zr1300   2.427   1_545  S
O868        C869   1.287       .  A
C869       C1015   1.477   1_655  S
O870      Zr1083   2.442       .  S
O870       C1292   1.288       .  A
O871      Zr1299   2.429       .  S
O871       C1292   1.287       .  A
C872       O1290   1.288   1_565  A
C872       O1291   1.286       .  A
C872       C1402   1.472       .  S
Zr873      O1080   2.433   1_554  S
Zr873      O1301   2.363       .  S
Zr873      O1512   2.367   1_554  S
Zr873      O1095   2.368   1_554  S
Zr873       O883   2.373       .  S
Zr873      O1504   2.435       .  S
Zr873      O1085   2.433   1_554  S
O874      Zr1503   2.435       .  S
O874       H1104   0.990       .  S
O874       H1109   0.990       .  S
O875      Zr1083   2.434       .  S
O875       H1105   0.990       .  S
Zr876      O1074   2.453   1_554  S
Zr876       O886   2.377       .  S
Zr876      O1094   2.373   1_554  S
Zr876      O1088   2.435       .  S
O877       H1103   0.990       .  S
O878      Zr1086   2.435       .  S
O878       H1102   0.990       .  S
O878       H1112   0.990       .  S
Zr879      O1262   2.427       .  S
Zr879      O1291   2.419       .  S
Zr879       O882   2.389   1_565  S
Zr879      O1305   2.382       .  S
Zr880      O1265   2.417       .  S
Zr880      O1288   2.417       .  S
Zr880      O1306   2.385       .  S
O881      Zr1293   2.360   1_545  S
O881        H889   0.966       .  S
O882      Zr1503   2.369       .  S
O883      Zr1063   2.369       .  S
O884      Zr1086   2.373       .  S
O884        H888   0.966       .  S
O885      Zr1083   2.375       .  S
O885      Zr1299   2.392       .  S
O885        H890   0.966       .  S
O886      Zr1066   2.377       .  S
O886      Zr1300   2.387   1_545  S
H891       O1068   0.990       .  S
H892       O1088   0.990   1_556  S
H893       O1087   0.990       .  S
H894       O1084   0.990   1_556  S
H895       O1085   0.990   1_554  S
H896       O1065   0.990       .  S
H898       O1067   0.990       .  S
H899       O1084   0.990       .  S
H902       O1088   0.989       .  S
N903        C908   1.354   1_455  A
N903        C907   1.352   1_455  A
N903        H935   1.041       .  S
N904        C911   1.351       .  A
N904        C912   1.351       .  A
N905        C910   1.355       .  A
N905        C909   1.356       .  A
N905        H936   1.042       .  S
N906        C913   1.351       .  A
N906        C914   1.350       .  A
C907        C915   1.387       .  A
C907        C923   1.414   1_655  A
C908        C924   1.415   1_655  A
C908        C916   1.386       .  A
C909        C917   1.386   1_455  A
C909        C926   1.417       .  A
C910        C925   1.419       .  A
C910        C918   1.388   1_455  A
C911        C923   1.413       .  A
C911        C919   1.387       .  A
C912        C926   1.413       .  A
C912        C920   1.386       .  A
C913        C921   1.386       .  A
C913        C924   1.412       .  A
C914        C922   1.387       .  A
C914        C925   1.413       .  A
C915        C916   1.375       .  A
C915        H927   1.082       .  S
C916        H928   1.082       .  S
C917        C918   1.375       .  A
C917        H929   1.082       .  S
C918        H930   1.082       .  S
C919        C920   1.374       .  A
C919        H931   1.082       .  S
C920        H932   1.082       .  S
C921        C922   1.374       .  A
C921        H933   1.082       .  S
C922        H934   1.082       .  S
C923       C1045   1.487       .  S
C924       C1025   1.492       .  S
C925       C1012   1.494       .  S
C926       C1035   1.496       .  S
N937        C942   1.355       .  A
N937        C941   1.354       .  A
N937        H969   1.041       .  S
N938        C945   1.351       .  A
N938        C946   1.352       .  A
N939        C944   1.351       .  A
N939        C943   1.353       .  A
N939        H970   1.041       .  S
N940        C947   1.351       .  A
N940        C948   1.351       .  A
C941        C949   1.386       .  A
C941        C957   1.416       .  A
C942        C958   1.419       .  A
C942        C950   1.388       .  A
C943        C951   1.387       .  A
C943        C960   1.414       .  A
C944        C959   1.413       .  A
C944        C952   1.387       .  A
C945        C957   1.413       .  A
C945        C953   1.387       .  A
C946        C960   1.413       .  A
C946        C954   1.385       .  A
C947        C955   1.387       .  A
C947        C958   1.415       .  A
C948        C956   1.386       .  A
C948        C959   1.412       .  A
C949        C950   1.377       .  A
C949        H961   1.082       .  S
C950        H962   1.082       .  S
C951        C952   1.375       .  A
C951        H963   1.082       .  S
C952        H964   1.082       .  S
C953        C954   1.373       .  A
C953        H965   1.082       .  S
C954        H966   1.082       .  S
C955        C956   1.374       .  A
C955        H967   1.082       .  S
C956        H968   1.082       .  S
C957        C985   1.493       .  S
C958       C1005   1.496       .  S
C959        C995   1.485       .  S
C960        C975   1.493       .  S
C971        C972   1.404       .  A
C971        C976   1.400       .  A
C971        H977   1.083       .  S
C972        C973   1.404       .  A
C973        C974   1.397       .  A
C973        H978   1.083       .  S
C974        C975   1.405       .  A
C974        H979   1.083       .  S
C975        C976   1.406       .  A
C976        H980   1.083       .  S
C981       C1402   1.403   1_545  A
C981        C986   1.397       .  A
C981        H987   1.083       .  S
C982       C1292   1.477       .  S
C982       C1401   1.404       .  A
C982        C983   1.404       .  A
C983        C984   1.400       .  A
C983        H988   1.083       .  S
C984        C985   1.407       .  A
C984        H989   1.083       .  S
C985       C1406   1.405       .  A
C986       C1405   1.405   1_545  A
C986        H990   1.083       .  S
C991        C992   1.404       .  A
C991        C996   1.396       .  A
C991        H997   1.083       .  S
C992       C1413   1.404       .  A
C993       C1412   1.404       .  A
C993        C994   1.395       .  A
C993        H998   1.083       .  S
C994       C1415   1.403   1_545  A
C994        H999   1.083       .  S
C995       C1414   1.405       .  A
C995        C996   1.403       .  A
C996       H1000   1.083       .  S
C1001      C1002   1.405       .  A
C1001      C1006   1.399       .  A
C1001      H1007   1.083       .  S
C1002      C1269   1.479       .  S
C1002      C1423   1.405       .  A
C1003      C1422   1.406   1_545  A
C1003      C1004   1.400       .  A
C1003      H1008   1.083       .  S
C1004      C1425   1.405   1_545  A
C1004      H1009   1.083       .  S
C1005      C1424   1.406       .  A
C1005      C1006   1.406       .  A
C1006      H1010   1.083       .  S
C1011      C1016   1.399       .  A
C1011      H1017   1.083       .  S
C1012      C1013   1.407   1_455  A
C1013      C1014   1.399       .  A
C1013      H1018   1.083       .  S
C1014      C1015   1.403   1_655  A
C1014      H1019   1.083       .  S
C1016      H1020   1.083       .  S
C1021      C1026   1.396       .  A
C1021      H1027   1.083       .  S
C1022      C1023   1.405       .  A
C1023      C1024   1.401       .  A
C1023      H1028   1.083       .  S
C1024      C1025   1.407   1_655  A
C1024      H1029   1.083       .  S
C1026      H1030   1.083       .  S
C1031      C1032   1.405       .  A
C1031      C1036   1.400       .  A
C1032      C1033   1.405   1_455  A
C1033      C1034   1.400       .  A
C1033      H1038   1.083       .  S
C1034      C1035   1.407   1_655  A
C1034      H1039   1.083       .  S
C1035      C1036   1.405       .  A
C1036      H1040   1.083       .  S
C1041      C1042   1.404       .  A
C1041      C1046   1.398       .  A
C1041      H1047   1.083       .  S
C1043      H1048   1.083       .  S
C1044      C1045   1.404       .  A
C1045      C1046   1.405   1_455  A
C1046      H1050   1.083       .  S
O1051     Zr1063   2.447   1_556  S
O1051      C1053   1.289       .  A
O1052     Zr1509   2.418       .  S
O1052      C1053   1.286       .  A
O1054      C1476   1.289   1_545  A
O1055     Zr1510   2.421       .  S
O1055      C1476   1.286       .  A
C1056      O1474   1.287       .  A
C1056      O1475   1.286       .  A
C1056      C1202   1.472       .  S
O1057     Zr1066   2.452   1_556  S
O1057      C1059   1.290       .  A
O1058      C1059   1.287   1_565  A
C1059      C1632   1.485       .  S
C1062      C1242   1.476       .  S
Zr1063     O1095   2.369   1_554  S
O1064      H1107   0.990   1_554  S
O1065      H1110   0.990       .  S
Zr1066     O1280   2.380   1_545  S
Zr1066     O1489   2.378   1_544  S
Zr1066     O1094   2.368   1_554  S
Zr1066     O1487   2.436   1_545  S
O1067     Zr1486   2.440       .  S
O1067      H1111   0.990   1_554  S
O1069     Zr1486   2.375   1_556  S
O1070     Zr1276   2.375       .  S
O1070     Zr1090   2.381       .  S
O1070      H1097   0.965       .  S
O1071     Zr1083   2.454       .  S
O1071      C1073   1.291       .  A
O1072      C1073   1.286       .  A
C1073      C1182   1.479       .  S
O1077     Zr1086   2.444       .  S
O1077      C1079   1.289       .  A
O1078     Zr1510   2.429   1_545  S
O1078      C1079   1.288       .  A
C1079      C1225   1.477       .  S
O1080      C1502   1.287       .  A
O1081     Zr1509   2.418       .  S
O1081      C1502   1.286       .  A
C1082      O1500   1.286       .  A
C1082      O1501   1.288       .  A
C1082      C1612   1.471       .  S
Zr1083     O1511   2.357       .  S
Zr1083     O1302   2.370       .  S
Zr1083     O1093   2.373       .  S
Zr1083     O1294   2.439       .  S
O1084     Zr1293   2.438   1_545  S
Zr1086     O1096   2.376       .  S
Zr1089     O1472   2.416       .  S
Zr1089     O1501   2.432       .  S
Zr1089     O1092   2.388   1_565  S
Zr1089     O1515   2.387       .  S
Zr1090     O1475   2.424       .  S
Zr1090     O1498   2.418       .  S
Zr1090     O1516   2.386       .  S
O1091     Zr1503   2.361       .  S
O1091      H1099   0.966       .  S
O1092     Zr1293   2.370   1_546  S
O1094      H1098   0.966       .  S
O1095     Zr1509   2.385       .  S
O1095      H1100   0.966       .  S
O1096     Zr1510   2.383   1_545  S
N1113      C1118   1.353   1_455  A
N1113      C1117   1.353   1_455  A
N1113      H1145   1.041       .  S
N1114      C1121   1.350       .  A
N1114      C1122   1.351       .  A
N1115      C1120   1.354   1_455  A
N1115      C1119   1.354       .  A
N1115      H1146   1.042       .  S
N1116      C1123   1.351       .  A
N1116      C1124   1.350       .  A
C1117      C1125   1.387       .  A
C1117      C1133   1.414   1_655  A
C1118      C1134   1.416   1_655  A
C1118      C1126   1.387       .  A
C1119      C1127   1.386   1_455  A
C1119      C1136   1.414       .  A
C1120      C1135   1.417   1_655  A
C1120      C1128   1.388       .  A
C1121      C1133   1.411       .  A
C1121      C1129   1.386       .  A
C1122      C1136   1.412       .  A
C1122      C1130   1.386       .  A
C1123      C1131   1.386       .  A
C1123      C1134   1.414       .  A
C1124      C1132   1.386       .  A
C1124      C1135   1.413       .  A
C1125      C1126   1.375       .  A
C1125      H1137   1.082       .  S
C1126      H1138   1.082       .  S
C1127      C1128   1.375       .  A
C1127      H1139   1.082       .  S
C1128      H1140   1.082       .  S
C1129      C1130   1.373       .  A
C1129      H1141   1.082       .  S
C1130      H1142   1.082       .  S
C1131      C1132   1.376       .  A
C1131      H1143   1.082       .  S
C1132      H1144   1.082       .  S
C1133      C1255   1.487   1_455  S
C1134      C1235   1.492       .  S
C1135      C1222   1.494       .  S
C1136      C1245   1.493       .  S
N1147      C1152   1.354       .  A
N1147      C1151   1.351       .  A
N1147      H1179   1.041       .  S
N1148      C1155   1.350       .  A
N1148      C1156   1.352       .  A
N1149      C1154   1.352       .  A
N1149      C1153   1.354       .  A
N1149      H1180   1.041       .  S
N1150      C1157   1.352       .  A
N1150      C1158   1.350       .  A
C1151      C1159   1.388       .  A
C1151      C1167   1.414       .  A
C1152      C1168   1.415       .  A
C1152      C1160   1.387       .  A
C1153      C1161   1.386       .  A
C1153      C1170   1.415       .  A
C1154      C1169   1.415       .  A
C1154      C1162   1.387       .  A
C1155      C1167   1.413       .  A
C1155      C1163   1.388       .  A
C1156      C1170   1.412       .  A
C1156      C1164   1.385       .  A
C1157      C1165   1.386       .  A
C1157      C1168   1.413       .  A
C1158      C1166   1.386       .  A
C1158      C1169   1.412       .  A
C1159      C1160   1.377       .  A
C1159      H1171   1.082       .  S
C1160      H1172   1.082       .  S
C1161      C1162   1.376       .  A
C1161      H1173   1.082       .  S
C1162      H1174   1.082       .  S
C1163      C1164   1.373       .  A
C1163      H1175   1.082       .  S
C1164      H1176   1.082       .  S
C1165      C1166   1.372       .  A
C1165      H1177   1.082       .  S
C1166      H1178   1.082       .  S
C1167      C1195   1.485       .  S
C1168      C1215   1.495       .  S
C1169      C1205   1.487       .  S
C1170      C1185   1.496       .  S
C1181      C1182   1.406       .  A
C1181      C1186   1.401       .  A
C1181      H1187   1.083       .  S
C1182      C1183   1.404       .  A
C1183      C1184   1.399       .  A
C1183      H1188   1.083       .  S
C1184      C1185   1.406       .  A
C1184      H1189   1.083       .  S
C1185      C1186   1.407       .  A
C1186      H1190   1.083       .  S
C1191      C1612   1.403   1_545  A
C1191      C1196   1.395       .  A
C1191      H1197   1.083       .  S
C1192      C1502   1.469       .  S
C1192      C1611   1.403       .  A
C1192      C1193   1.404       .  A
C1193      C1194   1.396       .  A
C1193      H1198   1.083       .  S
C1194      C1195   1.404       .  A
C1194      H1199   1.083       .  S
C1195      C1616   1.404       .  A
C1196      C1615   1.403   1_545  A
C1196      H1200   1.083       .  S
C1201      C1202   1.403       .  A
C1201      C1206   1.396       .  A
C1201      H1207   1.083       .  S
C1202      C1623   1.404       .  A
C1203      C1622   1.404   1_545  A
C1203      C1204   1.397       .  A
C1203      H1208   1.083       .  S
C1204      C1625   1.407   1_545  A
C1204      H1209   1.083       .  S
C1205      C1624   1.404       .  A
C1205      C1206   1.405       .  A
C1206      H1210   1.083       .  S
C1211      C1212   1.405       .  A
C1211      C1216   1.399       .  A
C1211      H1217   1.083       .  S
C1212      C1479   1.479       .  S
C1212      C1633   1.405       .  A
C1213      C1632   1.406       .  A
C1213      C1214   1.402       .  A
C1213      H1218   1.083       .  S
C1214      C1635   1.409       .  A
C1214      H1219   1.083       .  S
C1215      C1634   1.406       .  A
C1215      C1216   1.406       .  A
C1216      H1220   1.083       .  S
C1221      C1226   1.396       .  A
C1221      H1227   1.083       .  S
C1222      C1223   1.407   1_455  A
C1223      C1224   1.400       .  A
C1223      H1228   1.083       .  S
C1224      C1225   1.404       .  A
C1224      H1229   1.083       .  S
C1226      H1230   1.083       .  S
C1231      C1236   1.398       .  A
C1231      H1237   1.083       .  S
C1232      C1233   1.406       .  A
C1233      C1234   1.399       .  A
C1233      H1238   1.083       .  S
C1234      C1235   1.405   1_655  A
C1234      H1239   1.083       .  S
C1236      H1240   1.083       .  S
C1241      C1242   1.405       .  A
C1241      C1246   1.399       .  A
C1242      C1243   1.404   1_455  A
C1243      C1244   1.396       .  A
C1243      H1248   1.083       .  S
C1244      C1245   1.405   1_655  A
C1244      H1249   1.083       .  S
C1245      C1246   1.406       .  A
C1246      H1250   1.083       .  S
C1251      C1252   1.405       .  A
C1251      C1256   1.399       .  A
C1251      H1257   1.083       .  S
C1253      H1258   1.083       .  S
C1254      C1255   1.403   1_455  A
C1255      C1256   1.405       .  A
C1256      H1260   1.083       .  S
O1261     Zr1273   2.450       .  S
O1261      C1263   1.290       .  A
O1262      C1263   1.287       .  A
O1264     Zr1486   2.444       .  S
C1266      C1412   1.471       .  S
O1267     Zr1276   2.443       .  S
O1267      C1269   1.288       .  A
O1268      C1269   1.287       .  A
O1270     Zr1483   2.452       .  S
C1272      C1452   1.475   1_655  S
Zr1273     O1480   2.450       .  S
Zr1273     O1513   2.372       .  S
Zr1273     O1305   2.369       .  S
Zr1273     O1485   2.437       .  S
O1274      H1317   0.990       .  S
O1275     Zr1483   2.439   1_556  S
O1275      H1526   0.990   1_556  S
O1275      H1320   0.990       .  S
Zr1276     O1474   2.436       .  S
Zr1276     O1304   2.372       .  S
Zr1276     O1516   2.378       .  S
Zr1276     O1488   2.435       .  S
O1277      H1528   0.990       .  S
O1277      H1321   0.990       .  S
O1278     Zr1486   2.435       .  S
O1278      H1521   0.990       .  S
O1280     Zr1300   2.388       .  S
O1280      H1307   0.965       .  S
O1281     Zr1293   2.443       .  S
O1281      C1283   1.289       .  A
O1282      C1283   1.287       .  A
C1283      C1392   1.478       .  S
O1284     Zr1506   2.449       .  S
O1287     Zr1296   2.448       .  S
O1287      C1289   1.288       .  A
O1288      C1289   1.285       .  A
C1289      C1435   1.469       .  S
O1290     Zr1503   2.441       .  S
Zr1293     O1500   2.431   1_554  S
Zr1293     O1515   2.372   1_554  S
Zr1293     O1303   2.371       .  S
Zr1293     O1505   2.434       .  S
O1294      H1524   0.989       .  S
O1294      H1529   0.990       .  S
O1295     Zr1503   2.434   1_565  S
O1295      H1525   0.990       .  S
Zr1296     O1494   2.437   1_554  S
Zr1296     O1306   2.371       .  S
Zr1296     O1514   2.374   1_554  S
Zr1296     O1508   2.435       .  S
O1297      H1523   0.990       .  S
O1298     Zr1506   2.435       .  S
O1298      H1522   0.990       .  S
O1298      H1532   0.990       .  S
Zr1299     O1302   2.385       .  S
O1301      H1309   0.967       .  S
O1303     Zr1483   2.368       .  S
O1304     Zr1506   2.374       .  S
O1304      H1308   0.966       .  S
O1305     Zr1503   2.369   1_565  S
O1305      H1310   0.966       .  S
O1306     Zr1486   2.376       .  S
H1311      O1488   0.990       .  S
H1312      O1508   0.990       .  S
H1313      O1507   0.990       .  S
H1314      O1504   0.990   1_556  S
H1315      O1505   0.990       .  S
H1316      O1485   0.990       .  S
H1318      O1487   0.990   1_556  S
H1319      O1504   0.990   1_556  S
H1322      O1508   0.990   1_556  S
N1323      C1328   1.355   1_455  A
N1323      C1327   1.354   1_455  A
N1323      H1355   1.041       .  S
N1324      C1331   1.350       .  A
N1324      C1332   1.351       .  A
N1325      C1330   1.353       .  A
N1325      C1329   1.355       .  A
N1325      H1356   1.041       .  S
N1326      C1333   1.352       .  A
N1326      C1334   1.350       .  A
C1327      C1335   1.388       .  A
C1327      C1343   1.417   1_655  A
C1328      C1344   1.416   1_655  A
C1328      C1336   1.386       .  A
C1329      C1337   1.387   1_455  A
C1329      C1346   1.415       .  A
C1330      C1345   1.414       .  A
C1330      C1338   1.387   1_455  A
C1331      C1343   1.412       .  A
C1331      C1339   1.387       .  A
C1332      C1346   1.411       .  A
C1332      C1340   1.386       .  A
C1333      C1341   1.386       .  A
C1333      C1344   1.413       .  A
C1334      C1342   1.386       .  A
C1334      C1345   1.412       .  A
C1335      C1336   1.374       .  A
C1335      H1347   1.082       .  S
C1336      H1348   1.082       .  S
C1337      C1338   1.373       .  A
C1337      H1349   1.082       .  S
C1338      H1350   1.082       .  S
C1339      C1340   1.374       .  A
C1339      H1351   1.082       .  S
C1340      H1352   1.082       .  S
C1341      C1342   1.373       .  A
C1341      H1353   1.082       .  S
C1342      H1354   1.082       .  S
C1343      C1465   1.489       .  S
C1344      C1445   1.494   1_455  S
C1345      C1432   1.486       .  S
C1346      C1455   1.491       .  S
N1357      C1362   1.354       .  A
N1357      C1361   1.350       .  A
N1357      H1389   1.041   1_565  S
N1358      C1365   1.351       .  A
N1358      C1366   1.352       .  A
N1359      C1364   1.352       .  A
N1359      C1363   1.355       .  A
N1359      H1390   1.041   1_565  S
N1360      C1367   1.351   1_565  A
N1360      C1368   1.348   1_565  A
C1361      C1369   1.387       .  A
C1361      C1377   1.412       .  A
C1362      C1378   1.414       .  A
C1362      C1370   1.386       .  A
C1363      C1371   1.386       .  A
C1363      C1380   1.416       .  A
C1364      C1379   1.416       .  A
C1364      C1372   1.388       .  A
C1365      C1377   1.414       .  A
C1365      C1373   1.387   1_565  A
C1366      C1380   1.413       .  A
C1366      C1374   1.386   1_565  A
C1367      C1375   1.385       .  A
C1367      C1378   1.410   1_545  A
C1368      C1376   1.387       .  A
C1368      C1379   1.411   1_545  A
C1369      C1370   1.377       .  A
C1369      H1381   1.082       .  S
C1370      H1382   1.082       .  S
C1371      C1372   1.376       .  A
C1371      H1383   1.082       .  S
C1372      H1384   1.082       .  S
C1373      C1374   1.373       .  A
C1373      H1385   1.082       .  S
C1374      H1386   1.082       .  S
C1375      C1376   1.373       .  A
C1375      H1387   1.082       .  S
C1376      H1388   1.082       .  S
C1377      C1405   1.486       .  S
C1378      C1425   1.493       .  S
C1379      C1415   1.486       .  S
C1380      C1395   1.497       .  S
C1391      C1392   1.405       .  A
C1391      C1396   1.401       .  A
C1391      H1397   1.083       .  S
C1392      C1393   1.404   1_565  A
C1393      C1394   1.398       .  A
C1393      H1398   1.083       .  S
C1394      C1395   1.406   1_545  A
C1394      H1399   1.083       .  S
C1395      C1396   1.408       .  A
C1396      H1400   1.083       .  S
C1401      C1406   1.397       .  A
C1401      H1407   1.083       .  S
C1402      C1403   1.405       .  A
C1403      C1404   1.396       .  A
C1403      H1408   1.083       .  S
C1404      C1405   1.403       .  A
C1404      H1409   1.083       .  S
C1406      H1410   1.083       .  S
C1411      C1412   1.403   1_565  A
C1411      C1416   1.397       .  A
C1411      H1417   1.083       .  S
C1413      C1414   1.398       .  A
C1413      H1418   1.083       .  S
C1414      H1419   1.083       .  S
C1415      C1416   1.406       .  A
C1416      H1420   1.083       .  S
C1421      C1422   1.405       .  A
C1421      C1426   1.400       .  A
C1421      H1427   1.083       .  S
C1423      C1424   1.399       .  A
C1423      H1428   1.083       .  S
C1424      H1429   1.083       .  S
C1425      C1426   1.406       .  A
C1426      H1430   1.083       .  S
C1431      C1436   1.396       .  A
C1431      H1437   1.083       .  S
C1432      C1433   1.405   1_455  A
C1433      C1434   1.397       .  A
C1433      H1438   1.083       .  S
C1434      C1435   1.402       .  A
C1434      H1439   1.083       .  S
C1436      H1440   1.083       .  S
C1441      C1446   1.397       .  A
C1441      H1447   1.083       .  S
C1442      C1443   1.405       .  A
C1443      C1444   1.402       .  A
C1443      H1448   1.083       .  S
C1444      C1445   1.407       .  A
C1444      H1449   1.083       .  S
C1446      H1450   1.083       .  S
C1451      C1452   1.404       .  A
C1451      C1456   1.397       .  A
C1452      C1453   1.405   1_455  A
C1453      C1454   1.399       .  A
C1453      H1458   1.083       .  S
C1454      C1455   1.406   1_655  A
C1454      H1459   1.083       .  S
C1455      C1456   1.404       .  A
C1456      H1460   1.083       .  S
C1461      C1462   1.405       .  A
C1461      C1466   1.399       .  A
C1461      H1467   1.083       .  S
C1463      H1468   1.083       .  S
C1464      C1465   1.403       .  A
C1465      C1466   1.406   1_455  A
C1466      H1470   1.083       .  S
O1471     Zr1483   2.442   1_556  S
O1471      C1473   1.288       .  A
O1472      C1473   1.285       .  A
C1476      C1622   1.479       .  S
O1477     Zr1486   2.448   1_556  S
O1477      C1479   1.288       .  A
O1478      C1479   1.286       .  A
C1482      C1662   1.481       .  S
Zr1483     O1515   2.370   1_554  S
O1484      H1527   0.990   1_554  S
O1485      H1530   0.990       .  S
Zr1486     O1514   2.371   1_554  S
O1487      H1531   0.990       .  S
O1490     Zr1510   2.381       .  S
O1490      H1517   0.965       .  S
O1491     Zr1503   2.436   1_565  S
O1491      C1493   1.287       .  A
O1492      C1493   1.288       .  A
C1493      C1602   1.474       .  S
O1497     Zr1506   2.452       .  S
O1497      C1499   1.290       .  A
O1498      C1499   1.285       .  A
C1499      C1645   1.474       .  S
Zr1503     O1513   2.375   1_545  S
Zr1506     O1516   2.377       .  S
Zr1509     O1512   2.382       .  S
O1511      H1519   0.966       .  S
O1514      H1518   0.966       .  S
O1515      H1520   0.966       .  S
N1533      C1538   1.353   1_455  A
N1533      C1537   1.353   1_455  A
N1533      H1565   1.042       .  S
N1534      C1541   1.351       .  A
N1534      C1542   1.352       .  A
N1535      C1540   1.353       .  A
N1535      C1539   1.353       .  A
N1535      H1566   1.042       .  S
N1536      C1543   1.349       .  A
N1536      C1544   1.349       .  A
C1537      C1545   1.388       .  A
C1537      C1553   1.416   1_655  A
C1538      C1554   1.415   1_655  A
C1538      C1546   1.386       .  A
C1539      C1547   1.386   1_455  A
C1539      C1556   1.414       .  A
C1540      C1555   1.415       .  A
C1540      C1548   1.387   1_455  A
C1541      C1553   1.414       .  A
C1541      C1549   1.386       .  A
C1542      C1556   1.414       .  A
C1542      C1550   1.386       .  A
C1543      C1551   1.387       .  A
C1543      C1554   1.410       .  A
C1544      C1552   1.386       .  A
C1544      C1555   1.410       .  A
C1545      C1546   1.377       .  A
C1545      H1557   1.082       .  S
C1546      H1558   1.082       .  S
C1547      C1548   1.375       .  A
C1547      H1559   1.082       .  S
C1548      H1560   1.082       .  S
C1549      C1550   1.376       .  A
C1549      H1561   1.082       .  S
C1550      H1562   1.082       .  S
C1551      C1552   1.374       .  A
C1551      H1563   1.082       .  S
C1552      H1564   1.082       .  S
C1553      C1675   1.492       .  S
C1554      C1655   1.489       .  S
C1555      C1642   1.491       .  S
C1556      C1665   1.494       .  S
N1567      C1572   1.355       .  A
N1567      C1571   1.353       .  A
N1567      H1599   1.041   1_565  S
N1568      C1575   1.350       .  A
N1568      C1576   1.352       .  A
N1569      C1574   1.353       .  A
N1569      C1573   1.354       .  A
N1569      H1600   1.042   1_565  S
N1570      C1577   1.353   1_565  A
N1570      C1578   1.352   1_565  A
C1571      C1579   1.386       .  A
C1571      C1587   1.415       .  A
C1572      C1588   1.418       .  A
C1572      C1580   1.387       .  A
C1573      C1581   1.385       .  A
C1573      C1590   1.413       .  A
C1574      C1589   1.417       .  A
C1574      C1582   1.388       .  A
C1575      C1587   1.412       .  A
C1575      C1583   1.387   1_565  A
C1576      C1590   1.412       .  A
C1576      C1584   1.386   1_565  A
C1577      C1585   1.386       .  A
C1577      C1588   1.417   1_545  A
C1578      C1586   1.386       .  A
C1578      C1589   1.416   1_545  A
C1579      C1580   1.377       .  A
C1579      H1591   1.082       .  S
C1580      H1592   1.082       .  S
C1581      C1582   1.375       .  A
C1581      H1593   1.082       .  S
C1582      H1594   1.082       .  S
C1583      C1584   1.372       .  A
C1583      H1595   1.082       .  S
C1584      H1596   1.082       .  S
C1585      C1586   1.375       .  A
C1585      H1597   1.082       .  S
C1586      H1598   1.082       .  S
C1587      C1615   1.488       .  S
C1588      C1635   1.502   1_565  S
C1589      C1625   1.495       .  S
C1590      C1605   1.493       .  S
C1601      C1602   1.403       .  A
C1601      C1606   1.399       .  A
C1601      H1607   1.083       .  S
C1602      C1603   1.404   1_565  A
C1603      C1604   1.397       .  A
C1603      H1608   1.083       .  S
C1604      C1605   1.405   1_545  A
C1604      H1609   1.083       .  S
C1605      C1606   1.406       .  A
C1606      H1610   1.083       .  S
C1611      C1616   1.394       .  A
C1611      H1617   1.083       .  S
C1612      C1613   1.403       .  A
C1613      C1614   1.399       .  A
C1613      H1618   1.083       .  S
C1614      C1615   1.406       .  A
C1614      H1619   1.083       .  S
C1616      H1620   1.083       .  S
C1621      C1622   1.405       .  A
C1621      C1626   1.398       .  A
C1621      H1627   1.083       .  S
C1623      C1624   1.397       .  A
C1623      H1628   1.083       .  S
C1624      H1629   1.083       .  S
C1625      C1626   1.406       .  A
C1626      H1630   1.083       .  S
C1631      C1632   1.406   1_565  A
C1631      C1636   1.399       .  A
C1631      H1637   1.083       .  S
C1633      C1634   1.399       .  A
C1633      H1638   1.083       .  S
C1634      H1639   1.083       .  S
C1635      C1636   1.407   1_545  A
C1636      H1640   1.083       .  S
C1641      C1646   1.398       .  A
C1641      H1647   1.083       .  S
C1642      C1643   1.407   1_455  A
C1643      C1644   1.400       .  A
C1643      H1648   1.083       .  S
C1644      C1645   1.404       .  A
C1644      H1649   1.083       .  S
C1646      H1650   1.083       .  S
C1651      C1656   1.397       .  A
C1651      H1657   1.083       .  S
C1652      C1653   1.403       .  A
C1653      C1654   1.398       .  A
C1653      H1658   1.083       .  S
C1654      C1655   1.406   1_655  A
C1654      H1659   1.083       .  S
C1656      H1660   1.083       .  S
C1661      C1662   1.407       .  A
C1661      C1666   1.403       .  A
C1662      C1663   1.404   1_455  A
C1663      C1664   1.397       .  A
C1663      H1668   1.083       .  S
C1664      C1665   1.404   1_655  A
C1664      H1669   1.083       .  S
C1665      C1666   1.407       .  A
C1666      H1670   1.083       .  S
C1671      C1672   1.406       .  A
C1671      C1676   1.402       .  A
C1671      H1677   1.083       .  S
C1673      H1678   1.083       .  S
C1674      C1675   1.404       .  A
C1675      C1676   1.406   1_455  A
C1676      H1680   1.083       .  S
