geometry optimzed in LAMMPS
_audit_creation_date              2020-12-01 
_audit_creation_method            'lammps2cif' 
_symmetry_space_group_name_H-M    'P1' 
_symmetry_Int_Tables_number       1 
_symmetry_cell_setting            triclinic 
loop_ 
_symmetry_equiv_pos_as_xyz 
  x,y,z 
_cell_length_a                    24.35470789 
_cell_length_b                    24.177334423511386 
_cell_length_c                    24.683968487747656 
_cell_angle_alpha                 89.31832386834016 
_cell_angle_beta                  87.90996345294033 
_cell_angle_gamma                 91.0084844379747 
loop_ 
_atom_site_label 
_atom_site_type_symbol 
_atom_site_fract_x 
_atom_site_fract_y 
_atom_site_fract_z 
_atom_site_charge 
O1          O  0.62360931  0.77218780  0.77787245    -0.81500
O2          O  0.87197011  0.79268818  0.70434413    -0.66200
O3          O  0.71917050  0.74103630  0.72025509    -1.12800
C4          C  0.78077905  0.67955323  0.89399811     1.05400
O5          O  0.89785609  0.71008607  0.73099482    -0.79400
O6          O  0.83636735  0.62638522  0.77879184    -0.67000
Ni7        Ni  0.65690721  0.78669013  0.70646363     1.34900
C8          C  0.79035756  0.60883916  0.76269427     0.84100
O9          O  0.77830563  0.79694965  0.63787762    -0.80000
O10         O  0.68532820  0.80232529  0.63379951    -0.90200
C11         C  0.91129769  0.75863077  0.71417027     0.83700
O12         O  0.68294228  0.85788842  0.73059899    -0.68400
O13         O  0.83038839  0.68457810  0.87510455    -0.87700
C14         C  0.73023329  0.87498153  0.74355040     0.84500
C15         C  0.73378835  0.80690397  0.61246877     1.06100
H16         H  0.80169202  0.77386192  0.80717594     0.37900
O17         O  0.79992294  0.74232434  0.78358224    -1.10400
O18         O  0.74695375  0.63892289  0.76381751    -0.67000
Ni19       Ni  0.72701577  0.71221208  0.79250599     1.26300
O20         O  0.77324367  0.84423277  0.73900895    -0.67300
O21         O  0.73848188  0.68680980  0.86520672    -0.79600
C22         C  0.61017319  0.72313660  0.79259802     0.83900
O23         O  0.64909124  0.68839102  0.79890733    -0.66700
Ni24       Ni  0.86171900  0.69794283  0.80198561     1.27400
Ni25       Ni  0.79234001  0.77054291  0.71068793     1.26100
H26         H  0.71626493  0.70997291  0.69617376     0.38400
C27         C  0.76959995  0.34211106  0.51002176     0.85900
C28         C  0.73897140  0.30820322  0.55508848    -0.54400
C29         C  0.74712746  0.25224111  0.55416434     0.08800
C30         C  0.77937217  0.23533604  0.50022774     0.19700
C31         C  0.82940791  0.32171401  0.51044889    -0.55100
C32         C  0.83371555  0.26608404  0.50522499     0.08900
C33         C  0.74903932  0.31934538  0.45585343    -0.54600
C34         C  0.75642078  0.26360254  0.44802108     0.09500
H35         H  0.72319323  0.32850922  0.59139736     0.14000
H36         H  0.78340097  0.18982403  0.49645483    -0.00300
H37         H  0.86545760  0.34835179  0.51355942     0.14300
H38         H  0.73926979  0.34689811  0.42266264     0.14100
C39         C  0.17922072  0.14344027  0.51376062     0.85900
C40         C  0.22004345  0.13435881  0.55759874    -0.54400
C41         C  0.26129084  0.17263163  0.55832296     0.08800
C42         C  0.26127403  0.21322416  0.50897821     0.19700
C43         C  0.16297285  0.20624846  0.51767695    -0.55100
C44         C  0.20677294  0.24279612  0.51601423     0.08900
C45         C  0.21387650  0.13950662  0.46149494    -0.54600
C46         C  0.25356386  0.17954219  0.45574448     0.09500
H47         H  0.21168758  0.10593939  0.59133090     0.14000
H48         H  0.29783862  0.24123816  0.50640089    -0.00300
H49         H  0.12082379  0.22002632  0.52130255     0.14300
H50         H  0.20104033  0.11558393  0.42726102     0.14100
C51         C  0.82016376  0.85604083  0.50173211     0.85900
C52         C  0.78119450  0.86636207  0.54963526    -0.54400
C53         C  0.73987440  0.82857820  0.55581233     0.08800
C54         C  0.73409832  0.79110937  0.50497269     0.19700
C55         C  0.83281656  0.79271534  0.50321425    -0.55100
C56         C  0.78734237  0.75867732  0.50450475     0.08900
C57         C  0.78422691  0.86382710  0.45337963    -0.54600
C58         C  0.74016892  0.82805673  0.45227922     0.09500
H59         H  0.79114622  0.89442400  0.58203269     0.14000
H60         H  0.69577943  0.76555459  0.50720959    -0.00300
H61         H  0.87423813  0.77675629  0.50301725     0.14300
H62         H  0.79654591  0.88962833  0.41866826     0.14100
C63         C  0.23760040  0.66148563  0.49008263     0.85900
C64         C  0.26933492  0.69317151  0.53281880    -0.54400
C65         C  0.26215002  0.74913258  0.53290226     0.08800
C66         C  0.23242318  0.76889589  0.48019616     0.19700
C67         C  0.17843235  0.68529959  0.49371350    -0.55100
C68         C  0.17677666  0.74161887  0.48784263     0.08900
C69         C  0.26361930  0.68465878  0.43700465    -0.54600
C70         C  0.25465043  0.73991060  0.42713072     0.09500
H71         H  0.28539533  0.67323398  0.56819018     0.14000
H72         H  0.23115627  0.81467399  0.47602651    -0.00300
H73         H  0.14152384  0.65986963  0.50011636     0.14300
H74         H  0.27521029  0.65670816  0.40455432     0.14100
C75         C  0.34686135  0.48905806  0.73282236     0.85900
C76         C  0.31591299  0.54016966  0.71594636    -0.54400
C77         C  0.26465054  0.54368027  0.74060061     0.08800
C78         C  0.24809223  0.49270279  0.77725649     0.19700
C79         C  0.34437238  0.49182346  0.79551832    -0.55100
C80         C  0.29270590  0.49424674  0.81877349     0.08900
C81         C  0.31029231  0.44098575  0.71832702    -0.54600
C82         C  0.26036164  0.43869810  0.74468712     0.09500
H83         H  0.33516296  0.57408626  0.69272133     0.14000
H84         H  0.20539861  0.49470690  0.79428846    -0.00300
H85         H  0.38105240  0.49284820  0.81915797     0.14300
H86         H  0.32792604  0.40513564  0.69847310     0.14100
C87         C  0.31355128  0.50419377  0.30979883     0.85900
C88         C  0.27433501  0.45978123  0.33195553    -0.54400
C89         C  0.22980357  0.45291710  0.30020287     0.08800
C90         C  0.22411675  0.49872535  0.25607866     0.19700
C91         C  0.32166850  0.49124182  0.24814765    -0.55100
C92         C  0.27496297  0.49194069  0.21988984     0.08900
C93         C  0.28035783  0.55652279  0.31232522    -0.54600
C94         C  0.23507587  0.55459869  0.28222915     0.09500
H95         H  0.28753578  0.42760323  0.35947462     0.14000
H96         H  0.18458617  0.49697576  0.23512762    -0.00300
H97         H  0.36163153  0.48474090  0.22840313     0.14300
H98         H  0.29585329  0.59467026  0.32958678     0.14100
C99         C  0.72805507  0.48006021  0.70494283     0.85900
C100        C  0.77867233  0.44580978  0.69404353    -0.54400
C101        C  0.81620974  0.44742899  0.73338865     0.08800
C102        C  0.80494990  0.49656489  0.77337692     0.19700
C103        C  0.71076395  0.47032041  0.76620191    -0.55100
C104        C  0.75159660  0.47741590  0.80151781     0.08900
C105        C  0.74850488  0.53964717  0.70344097    -0.54600
C106        C  0.78701390  0.55058144  0.74111758     0.09500
H107        H  0.77707512  0.41229521  0.66498777     0.14000
H108        H  0.83910753  0.50461870  0.80086763    -0.00300
H109        H  0.66992134  0.45681870  0.78008358     0.14300
H110        H  0.72853697  0.57197232  0.68093264     0.14100
C111        C  0.70765753  0.50038928  0.29462430     0.85900
C112        C  0.74155335  0.55299948  0.30059140    -0.54400
C113        C  0.78288222  0.56022397  0.26326369     0.08800
C114        C  0.79397189  0.50551535  0.23066118     0.19700
C115        C  0.69713899  0.49271207  0.23302682    -0.55100
C116        C  0.74208297  0.49676662  0.19931380     0.08900
C117        C  0.74711325  0.45504650  0.30738735    -0.54600
C118        C  0.79088794  0.45346912  0.27055499     0.09500
H119        H  0.72634270  0.58706235  0.32509321     0.14000
H120        H  0.83244837  0.50857503  0.20571132    -0.00300
H121        H  0.65683898  0.48146535  0.21872517     0.14300
H122        H  0.73459868  0.42021593  0.33352045     0.14100
C123        C  0.49240626  0.68759294  0.32665814     0.85900
C124        C  0.54352934  0.67343662  0.29211591    -0.54400
C125        C  0.54866865  0.69948588  0.24336118     0.08800
C126        C  0.49768682  0.73414623  0.23160943     0.19700
C127        C  0.49253454  0.75081662  0.32827738    -0.55100
C128        C  0.49462299  0.77511337  0.27838986     0.08900
C129        C  0.44281433  0.67357282  0.29227430    -0.54600
C130        C  0.44466999  0.69793908  0.24201699     0.09500
H131        H  0.57838636  0.65322012  0.30941424     0.14000
H132        H  0.50004462  0.75341908  0.19049101    -0.00300
H133        H  0.49098541  0.77423889  0.36561722     0.14300
H134        H  0.40388129  0.65937584  0.31018719     0.14100
C135        C  0.49660031  0.18240661  0.22654133     0.85900
C136        C  0.53750666  0.21054233  0.18623767    -0.54400
C137        C  0.54356092  0.26603402  0.19262591     0.08800
C138        C  0.48953436  0.28963687  0.22375799     0.19700
C139        C  0.50237499  0.21049664  0.28175838    -0.55100
C140        C  0.49673636  0.26620129  0.28056864     0.08900
C141        C  0.44273856  0.20092585  0.20644812    -0.54600
C142        C  0.43515527  0.25663048  0.20475140     0.09500
H143        H  0.56871685  0.18842159  0.16349778     0.14000
H144        H  0.48634233  0.33537230  0.22260221    -0.00300
H145        H  0.50873360  0.18777291  0.31922905     0.14300
H146        H  0.41110655  0.17058825  0.19719195     0.14100
C147        C  0.49771030  0.67412669  0.71356085     0.85900
C148        C  0.44592408  0.66975619  0.74988732    -0.54400
C149        C  0.44212078  0.71052591  0.78681505     0.08800
C150        C  0.49852123  0.74449702  0.79101601     0.19700
C151        C  0.50246614  0.73615836  0.69491047    -0.55100
C152        C  0.50301498  0.77303700  0.73600055     0.08900
C153        C  0.54404333  0.66436070  0.75218849    -0.54600
C154        C  0.55013333  0.70450958  0.78945042     0.09500
H155        H  0.41106798  0.64305416  0.74186554     0.14000
H156        H  0.49796653  0.77264349  0.82618385    -0.00300
H157        H  0.50524606  0.74924289  0.65260213     0.14300
H158        H  0.57613615  0.63479894  0.74314814     0.14100
C159        C  0.51657011  0.27694670  0.66874921     0.85900
C160        C  0.57150245  0.28028086  0.69744458    -0.54400
C161        C  0.57257768  0.25254183  0.74611189     0.08800
C162        C  0.51563054  0.22481696  0.76195356     0.19700
C163        C  0.50512148  0.21425613  0.66542466    -0.55100
C164        C  0.50550106  0.18642830  0.71391638     0.08900
C165        C  0.47358532  0.29797385  0.71010102    -0.54600
C166        C  0.46932141  0.26906217  0.75786729     0.09500
H167        H  0.60871205  0.29847730  0.67922473     0.14000
H168        H  0.51488306  0.20351422  0.80200579    -0.00300
H169        H  0.50029920  0.19353453  0.62705158     0.14300
H170        H  0.44168822  0.32604813  0.69817905     0.14100
O171        O  0.39159496  0.20998594  0.76269595    -0.81500
O172        O  0.15045584  0.19619558  0.72714988    -0.66200
O173        O  0.29990001  0.25121774  0.71987353    -1.12800
C174        C  0.24569243  0.31682825  0.89516041     1.05400
O175        O  0.12963297  0.28208015  0.74332269    -0.79400
O176        O  0.19516422  0.36795851  0.77473219    -0.67000
Ni177      Ni  0.35881928  0.20619489  0.69363767     1.34900
C178        C  0.24500005  0.38187078  0.76494327     0.84100
O179        O  0.23542271  0.19338556  0.64863666    -0.80000
O180        O  0.32585013  0.19995263  0.62393494    -0.90200
C181        C  0.11372649  0.23221722  0.73795896     0.83700
O182        O  0.33262781  0.13411740  0.71441798    -0.68400
O183        O  0.19771534  0.32129254  0.87634590    -0.87700
C184        C  0.29075881  0.11984690  0.74322963     0.84500
C185        C  0.27557856  0.19030268  0.61343131     1.06100
H186        H  0.21786185  0.22053695  0.81860754     0.37900
O187        O  0.22302916  0.25087806  0.79297233    -1.10400
O188        O  0.28469488  0.34895789  0.77198562    -0.67000
Ni189      Ni  0.29757523  0.27438394  0.79464750     1.26300
O190        O  0.24988276  0.15177974  0.75161695    -0.67300
O191        O  0.28785671  0.29763112  0.86865964    -0.79600
C192        C  0.41096908  0.25626409  0.77616502     0.83900
O193        O  0.37687371  0.29302698  0.79238029    -0.66700
Ni194      Ni  0.16516921  0.30157214  0.80899886     1.27400
Ni195      Ni  0.22736013  0.22154290  0.72115803     1.26100
H196        H  0.30048870  0.28377792  0.69674848     0.38400
O197        O  0.17934153  0.62874838  0.29047119    -0.81500
O198        O  0.24951561  0.88131414  0.27345722    -0.66200
O199        O  0.19757404  0.73502956  0.24800112    -1.12800
C200        C  0.39181713  0.71739790  0.22094192     1.05400
O201        O  0.28874345  0.88059326  0.19109271    -0.79400
O202        O  0.31507095  0.79295643  0.13277497    -0.67000
Ni203      Ni  0.14915905  0.69915762  0.30131510     1.34900
C204        C  0.27816263  0.75831403  0.11953081     0.84100
O205        O  0.14804981  0.83470355  0.27242568    -0.80000
O206        O  0.11244931  0.76525619  0.32050967    -0.90200
C207        C  0.26483598  0.90574104  0.22959629     0.83700
O208        O  0.19958568  0.70844466  0.35694510    -0.68400
O209        O  0.39303803  0.76795927  0.20642895    -0.87700
C210        C  0.22835545  0.74925805  0.37242952     0.84500
C211        C  0.10651078  0.80648872  0.28992867     1.06100
H212        H  0.31209088  0.78006667  0.28292510     0.37900
O213        O  0.29264934  0.78168101  0.24952781    -1.10400
O214        O  0.25855389  0.72190430  0.15388388    -0.67000
Ni215      Ni  0.27083035  0.70867028  0.23302367     1.26300
O216        O  0.23272005  0.79444817  0.34407250    -0.67300
O217        O  0.34767383  0.68686138  0.22388060    -0.79600
C218        C  0.21687036  0.60733929  0.26170085     0.83900
O219        O  0.24641228  0.63347118  0.22550094    -0.66700
Ni220      Ni  0.33924493  0.82232538  0.19935039     1.27400
Ni221      Ni  0.22181280  0.80847026  0.26482649     1.26100
H222        H  0.17796702  0.73678192  0.21470856     0.38400
O223        O  0.78156646  0.38011404  0.20598936    -0.81500
O224        O  0.69130140  0.14319349  0.22987650    -0.66200
O225        O  0.72281621  0.29489957  0.25547733    -1.12800
C226        C  0.90027182  0.22806735  0.30950262     1.05400
O227        O  0.72749427  0.11430717  0.30624352    -0.79400
O228        O  0.77262782  0.19122428  0.38005877    -0.67000
Ni229      Ni  0.70787539  0.34868976  0.19897771     1.34900
C230        C  0.76848221  0.24302154  0.38978714     0.84100
O231        O  0.63079511  0.23660829  0.22517081    -0.80000
O232        O  0.63039411  0.32301976  0.19103423    -0.90200
C233        C  0.70466735  0.10384178  0.26100573     0.83700
O234        O  0.73397319  0.30842004  0.13488161    -0.68400
O235        O  0.87581235  0.18199523  0.32306831    -0.87700
C236        C  0.73968335  0.25673011  0.12692177     0.84500
C237        C  0.60495177  0.27756096  0.20451431     1.06100
H238        H  0.80219249  0.19737217  0.22783499     0.37900
O239        O  0.78154730  0.20725311  0.26036011    -1.10400
O240        O  0.77713843  0.27938606  0.35189080    -0.67000
Ni241      Ni  0.79843199  0.28242564  0.27419055     1.26300
O242        O  0.72928508  0.22135490  0.16506881    -0.67300
O243        O  0.87366067  0.26777841  0.28848388    -0.79600
C244        C  0.79971609  0.39578167  0.25141335     0.83900
O245        O  0.81252663  0.35940825  0.28587994    -0.66700
Ni246      Ni  0.79929029  0.15248914  0.31463548     1.27400
Ni247      Ni  0.70585517  0.21998980  0.24169673     1.26100
H248        H  0.70206638  0.30554338  0.28768835     0.38400
O249        O  0.71188750  0.25921445  0.88760064    -0.81500
O250        O  0.72541927  0.20821544  0.64423003    -0.66200
O251        O  0.75780283  0.20902658  0.79804535    -1.12800
C252        C  0.83052408  0.38847784  0.74810746     1.05400
O253        O  0.80935891  0.23637001  0.62573982    -0.79400
O254        O  0.88553197  0.25381326  0.70087460    -0.67000
Ni255      Ni  0.69855081  0.19123831  0.85041382     1.34900
C256        C  0.89579495  0.24697216  0.75040788     0.84100
O257        O  0.71854434  0.12576308  0.73104560    -0.80000
O258        O  0.68682088  0.12000994  0.81859493    -0.90200
C259        C  0.76108875  0.22849840  0.60965285     0.83700
O260        O  0.63455709  0.22112551  0.81540266    -0.68400
O261        O  0.85486781  0.36137152  0.71052930    -0.87700
C262        C  0.62768939  0.23394991  0.76593608     0.84500
C263        C  0.70445090  0.09763559  0.77481489     1.06100
H264        H  0.74000434  0.30575366  0.71408024     0.37900
O265        O  0.76953375  0.28080421  0.72134246    -1.10400
O266        O  0.86155700  0.26026394  0.78864190    -0.67000
Ni267      Ni  0.78551252  0.28504822  0.79702597     1.26300
O268        O  0.66650879  0.23029335  0.73028955    -0.67300
O269        O  0.80707308  0.36376666  0.78968031    -0.79600
C270        C  0.75873357  0.26616770  0.90808411     0.83900
O271        O  0.79792018  0.28310549  0.87572157    -0.66700
Ni272      Ni  0.82975978  0.29792720  0.67007074     1.27400
Ni273      Ni  0.74116735  0.20486122  0.72261215     1.26100
H274        H  0.78776243  0.18440099  0.80483591     0.38400
C275        C  0.68589477  0.64100731  0.00524110     0.85900
C276        C  0.72125244  0.63136970  0.05363775    -0.54400
C277        C  0.76569977  0.66603984  0.05557069     0.08800
C278        C  0.77530582  0.70104918  0.00182179     0.19700
C279        C  0.67704076  0.70470471  0.00215366    -0.55100
C280        C  0.72396082  0.73654339  0.00076936     0.08900
C281        C  0.72440359  0.62737915  0.95770895    -0.54600
C282        C  0.76912485  0.66181535  0.95175873     0.09500
H283        H  0.70771525  0.60601138  0.08832449     0.14000
H284        H  0.81488800  0.72415307  0.00089416    -0.00300
H285        H  0.63644436  0.72253165  0.00148961     0.14300
H286        H  0.71314746  0.59904178  0.92599938     0.14100
C287        C  0.74047416  0.15500021  0.01220264     0.85900
C288        C  0.76143506  0.17908342  0.06496708    -0.54400
C289        C  0.75573673  0.23508005  0.07044045     0.08800
C290        C  0.73643966  0.26261877  0.01669070     0.19700
C291        C  0.68216061  0.17881518  0.00735571    -0.55100
C292        C  0.68095874  0.23497737  0.01110125     0.08900
C293        C  0.77330156  0.18517808  0.96562953    -0.54600
C294        C  0.76852207  0.24178779  0.96440443     0.09500
H295        H  0.77011551  0.15220267  0.09905218     0.14000
H296        H  0.73548087  0.30850406  0.01856294    -0.00300
H297        H  0.64544238  0.15428108  0.00017362     0.14300
H298        H  0.78751325  0.16288916  0.92994983     0.14100
C299        C  0.27542622  0.84736058  0.00063008     0.85900
C300        C  0.25039999  0.82497067  0.05434125    -0.54400
C301        C  0.25534479  0.76898047  0.06287247     0.08800
C302        C  0.27580609  0.73996778  0.00803723     0.19700
C303        C  0.33354172  0.82089184  0.99646841    -0.55100
C304        C  0.33232305  0.76464458  0.00012180     0.08900
C305        C  0.23963860  0.81871609  0.95970977    -0.54600
C306        C  0.24731355  0.76280549  0.95530039     0.09500
H307        H  0.24213449  0.85274562  0.08788619     0.14000
H308        H  0.27525115  0.69406721  0.01097389    -0.00300
H309        H  0.37208085  0.84408498  0.99322031     0.14300
H310        H  0.22345998  0.84308449  0.92666460     0.14100
C311        C  0.33884328  0.36260478  0.99294167     0.85900
C312        C  0.30648251  0.36963282  0.04632152    -0.54400
C313        C  0.26277118  0.33404739  0.05277419     0.08800
C314        C  0.25206476  0.29988997  0.00027802     0.19700
C315        C  0.35010742  0.29856622  0.98942696    -0.55100
C316        C  0.30384784  0.26526398  0.99271009     0.08900
C317        C  0.29781756  0.37441721  0.95005372    -0.54600
C318        C  0.25500198  0.33850739  0.94981566     0.09500
H319        H  0.32287349  0.39149825  0.08040731     0.14000
H320        H  0.21234908  0.27705101  0.00272902    -0.00300
H321        H  0.39103661  0.28184762  0.98454421     0.14300
H322        H  0.30842127  0.40046970  0.91503508     0.14100
O323        O  0.21214537  0.61527399  0.70715876    -0.81500
O324        O  0.26576105  0.87763504  0.70183897    -0.66200
O325        O  0.26607491  0.71776632  0.70452307    -1.12800
C326        C  0.26904593  0.75251381  0.89692478     1.05400
O327        O  0.33861845  0.87188550  0.75019314    -0.79400
O328        O  0.38238473  0.78628335  0.80032730    -0.67000
Ni329      Ni  0.21017435  0.68117624  0.66309600     1.34900
C330        C  0.38524303  0.73482936  0.79377790     0.84100
O331        O  0.27368964  0.79790444  0.61963936    -0.80000
O332        O  0.20409771  0.74175254  0.61250559    -0.90200
C333        C  0.30208360  0.90144664  0.73034434     0.83700
O334        O  0.14953729  0.71015506  0.70412924    -0.68400
O335        O  0.30421467  0.78956922  0.88038122    -0.87700
C336        C  0.13989477  0.76156664  0.70773549     0.84500
C337        C  0.24484148  0.76694364  0.58994530     1.06100
H338        H  0.22701934  0.80485211  0.79231960     0.37900
O339        O  0.26176512  0.79144659  0.77814372    -1.10400
O340        O  0.34165939  0.70449548  0.78845549    -0.67000
Ni341      Ni  0.26080634  0.71282022  0.78381252     1.26300
O342        O  0.17968487  0.79854244  0.70140963    -0.67300
O343        O  0.24983631  0.71550666  0.86457688    -0.79600
C344        C  0.24175409  0.59985957  0.74573647     0.83900
O345        O  0.25948241  0.63244084  0.78242160    -0.66700
Ni346      Ni  0.31975250  0.83020430  0.81445056     1.27400
Ni347      Ni  0.26359399  0.79709019  0.69968980     1.26100
H348        H  0.30180211  0.70575568  0.69158409     0.38400
C349        C  0.81107676  0.99523252  0.78820690     0.85900
C350        C  0.78173824  0.93974367  0.79615545    -0.54400
C351        C  0.73644263  0.93281998  0.76696319     0.08800
C352        C  0.71787486  0.98971624  0.74075587     0.19700
C353        C  0.81408451  0.00755584  0.72604988    -0.55100
C354        C  0.76528754  0.00387405  0.70120402     0.08900
C355        C  0.77063839  0.03686595  0.81031535    -0.54600
C356        C  0.72272233  0.03863031  0.78246797     0.09500
H357        H  0.80172971  0.90498564  0.81521568     0.14000
H358        H  0.67642858  0.98734246  0.72378804    -0.00300
H359        H  0.85259067  0.01650112  0.70386931     0.14300
H360        H  0.78354223  0.06983916  0.83682592     0.14100
C361        C  0.20833479  0.00326755  0.78399112     0.85900
C362        C  0.24273790  0.05242838  0.79974854    -0.54400
C363        C  0.28654116  0.06197645  0.76443643     0.08800
C364        C  0.29792724  0.01251836  0.72455559     0.19700
C365        C  0.20047795  0.01122361  0.72145970    -0.55100
C366        C  0.24779067  0.01268810  0.69027886     0.08900
C367        C  0.24608404  0.95441201  0.78965746    -0.54600
C368        C  0.29072670  0.95607684  0.75533239     0.09500
H369        H  0.22661424  0.08398238  0.82660265     0.14000
H370        H  0.33798224  0.01613604  0.70190602    -0.00300
H371        H  0.16035140  0.01288052  0.70374644     0.14300
H372        H  0.23227661  0.91643039  0.81049053     0.14100
C373        C  0.77866247  0.99268894  0.20193915     0.85900
C374        C  0.74225741  0.04209516  0.19584636    -0.54400
C375        C  0.70405203  0.04620693  0.23783271     0.08800
C376        C  0.69961032  0.99178862  0.27440415     0.19700
C377        C  0.79661684  0.99573872  0.26304642    -0.55100
C378        C  0.75431739  0.99355642  0.30051623     0.08900
C379        C  0.73970702  0.94324442  0.19793764    -0.54600
C380        C  0.70410510  0.93676870  0.24061833     0.09500
H381        H  0.75513243  0.07708355  0.17014127     0.14000
H382        H  0.66283294  0.99225714  0.30217245    -0.00300
H383        H  0.83885351  0.99942583  0.27505489     0.14300
H384        H  0.74967110  0.90886847  0.17141050     0.14100
C385        C  0.16641546  0.01812255  0.20815369     0.85900
C386        C  0.19320647  0.96281642  0.19825196    -0.54400
C387        C  0.24387216  0.95958157  0.21848279     0.08800
C388        C  0.26392129  0.01169961  0.24638460     0.19700
C389        C  0.16932925  0.02802009  0.27014767    -0.55100
C390        C  0.21966427  0.02074906  0.29049575     0.08900
C391        C  0.20663137  0.05977015  0.18185937    -0.54600
C392        C  0.25666052  0.06009485  0.20582388     0.09500
H393        H  0.17175084  0.92733203  0.18169801     0.14000
H394        H  0.30616571  0.00832941  0.26148399    -0.00300
H395        H  0.13370329  0.03709387  0.29614551     0.14300
H396        H  0.19234210  0.09532074  0.15938689     0.14100
O397        O  0.88286626  0.73030234  0.26751725    -0.81500
O398        O  0.64406637  0.68837806  0.21624705    -0.66200
O399        O  0.78776293  0.75389206  0.21715098    -1.12800
C400        C  0.72653971  0.80889077  0.39678335     1.05400
O401        O  0.61691768  0.76951265  0.24369435    -0.79400
O402        O  0.66295497  0.85828326  0.28916767    -0.67000
Ni403      Ni  0.85222347  0.71287214  0.19808977     1.34900
C404        C  0.70587404  0.87894696  0.26588470     0.84100
O405        O  0.73117016  0.69556426  0.14130563    -0.80000
O406        O  0.82376032  0.69495232  0.12740401    -0.90200
C407        C  0.60512578  0.72046723  0.23012683     0.83700
O408        O  0.83283738  0.63928450  0.22462101    -0.68400
O409        O  0.67684182  0.79806895  0.38421978    -0.87700
C410        C  0.78674825  0.61861346  0.24055708     0.84500
C411        C  0.77470538  0.68774751  0.11119484     1.06100
H412        H  0.71245338  0.71214105  0.31331928     0.37900
O413        O  0.71045663  0.74394049  0.28942539    -1.10400
O414        O  0.75100380  0.85169291  0.26185574    -0.67000
Ni415      Ni  0.77870023  0.78119157  0.29006292     1.26300
O416        O  0.74236827  0.64659747  0.24023700    -0.67300
O417        O  0.76753717  0.80576076  0.36298868    -0.79600
C418        C  0.89210790  0.78056259  0.27988587     0.83900
O419        O  0.85163357  0.81244564  0.28857508    -0.66700
Ni420      Ni  0.64671814  0.78332165  0.31328711     1.27400
Ni421      Ni  0.71833469  0.71857996  0.21512006     1.26100
H422        H  0.78763203  0.78513487  0.19236706     0.38400
C423        C  0.02204197  0.80218116  0.80039955     0.85900
C424        C  0.97546477  0.81313364  0.76194064    -0.54400
C425        C  0.97154757  0.77818190  0.72000476     0.08800
C426        C  0.02566772  0.74142315  0.71517329     0.19700
C427        C  0.01977144  0.73917961  0.81216036    -0.55100
C428        C  0.02123849  0.70730453  0.76725403     0.08900
C429        C  0.07552608  0.81112292  0.76718634    -0.54600
C430        C  0.08080012  0.77790764  0.72339369     0.09500
H431        H  0.94054956  0.83770652  0.77506494     0.14000
H432        H  0.02713633  0.71668363  0.67760559    -0.00300
H433        H  0.01698157  0.72164083  0.85293129     0.14300
H434        H  0.11058108  0.83346885  0.78216218     0.14100
C435        C  0.00325613  0.82273167  0.18565430     0.85900
C436        C  0.04924193  0.84370924  0.22061265    -0.54400
C437        C  0.05097439  0.81765194  0.26976786     0.08800
C438        C  0.00192646  0.77599885  0.28068424     0.19700
C439        C  0.01009207  0.75934013  0.18433077    -0.55100
C440        C  0.00867900  0.73477723  0.23450364     0.08900
C441        C  0.95056181  0.83038385  0.21908546    -0.54600
C442        C  0.94755118  0.80474504  0.26785694     0.09500
H443        H  0.08348302  0.86862096  0.20453045     0.14000
H444        H  0.00033415  0.75824073  0.32235899    -0.00300
H445        H  0.01362918  0.73617992  0.14696264     0.14300
H446        H  0.91370969  0.84495417  0.20063781     0.14100
C447        C  0.00535785  0.20824079  0.84443465     0.85900
C448        C  0.05205801  0.18897817  0.80587735    -0.54400
C449        C  0.05595183  0.21653024  0.75712003     0.08800
C450        C  0.00611668  0.25608160  0.74947175     0.19700
C451        C  0.01106681  0.27190859  0.84513110    -0.55100
C452        C  0.01076059  0.29694270  0.79553998     0.08900
C453        C  0.95289645  0.19693281  0.81348902    -0.54600
C454        C  0.95076322  0.22480416  0.76526263     0.09500
H455        H  0.08522621  0.16367931  0.81998681     0.14000
H456        H  0.00600454  0.27578909  0.70866195    -0.00300
H457        H  0.01360464  0.29527206  0.88234410     0.14300
H458        H  0.91686076  0.17556377  0.83092781     0.14100
C459        C  0.00731673  0.32892453  0.29622561     0.85900
C460        C  0.06058132  0.30981663  0.31836927    -0.54400
C461        C  0.06960465  0.25415377  0.31543581     0.08800
C462        C  0.01658022  0.22185504  0.29240797     0.14100
C463        C  0.00757059  0.30419763  0.23853812    -0.55100
C464        C  0.01191154  0.24853286  0.23685071     0.08900
C465        C  0.96433043  0.29813795  0.33104576    -0.54600
C466        C  0.96071814  0.24262201  0.32242505     0.09500
H467        H  0.09178610  0.33954452  0.32975430     0.14000
H468        H  0.02044398  0.17620339  0.29115736    -0.00300
H469        H  0.00636305  0.32859028  0.20138414     0.14300
H470        H  0.93065954  0.32093769  0.34994046     0.14100
O471        O  0.19214217  0.36300901  0.30518551    -0.81500
O472        O  0.23508120  0.13405156  0.26019735    -0.66200
O473        O  0.26116011  0.27866309  0.29905518    -1.12800
C474        C  0.25901959  0.30579947  0.10654005     1.05400
O475        O  0.30742342  0.14407860  0.20320148    -0.79400
O476        O  0.35397670  0.23940440  0.15806607    -0.67000
Ni477      Ni  0.22156979  0.31199278  0.35535381     1.34900
C478        C  0.37491091  0.26994152  0.19400563     0.84100
O479        O  0.24422111  0.18195562  0.35884948    -0.80000
O480        O  0.25312145  0.26161766  0.40466823    -0.90200
C481        C  0.26960241  0.11435848  0.22582407     0.83700
O482        O  0.15444885  0.26780133  0.35778756    -0.68400
O483        O  0.26022205  0.25346045  0.10464920    -0.87700
C484        C  0.13115402  0.24129244  0.32060013     0.84500
C485        C  0.25305648  0.20898756  0.40261729     1.06100
H486        H  0.20714066  0.23373346  0.19811927     0.37900
O487        O  0.24454959  0.23399978  0.20985877    -1.10400
O488        O  0.34389958  0.29977149  0.22482970    -0.67000
Ni489      Ni  0.26175489  0.30704872  0.22626632     1.26300
O490        O  0.16097091  0.21518954  0.28555079    -0.67300
O491        O  0.26268756  0.33294619  0.15087389    -0.79600
C492        C  0.22640796  0.39641630  0.28207968     0.83900
O493        O  0.26559590  0.37954365  0.25078144    -0.66700
Ni494      Ni  0.28472599  0.19979893  0.15414291     1.27400
Ni495      Ni  0.24323854  0.20630883  0.28315464     1.26100
H496        H  0.29868683  0.27860903  0.31047025     0.38400
C497        C  0.10953136  0.20861670  0.06727766    -0.18500
C498        C  0.10845396  0.20224002  0.01111070    -0.20600
C499        C  0.05857774  0.19355504  0.98582541     0.20000
C500        C  0.00926313  0.19033514  0.01734009    -0.03500
C501        C  0.01020582  0.19724525  0.07398348    -0.06600
C502        C  0.06071882  0.20640347  0.09892997     0.20300
C503        C  0.96052587  0.19739000  0.10526998     0.18500
C504        C  0.91054970  0.18917809  0.07987720    -0.18100
C505        C  0.90980774  0.18189518  0.02378256    -0.20300
C506        C  0.95880719  0.18334963  0.99206012     0.20000
C507        C  0.95776318  0.18205034  0.93533137    -0.33300
C508        C  0.00672142  0.18783848  0.90299616     0.00600
C509        C  0.05703667  0.19216499  0.92926646    -0.24700
C510        C  0.06126060  0.21685951  0.15451555    -0.29200
C511        C  0.01188172  0.21970145  0.18499745     0.06300
C512        C  0.96168828  0.20860044  0.16080311    -0.27900
H513        H  0.14821309  0.21685885  0.08607792     0.11000
H514        H  0.14631416  0.20539649  0.98694193     0.12200
H515        H  0.87211185  0.18895311  0.10334709     0.11200
H516        H  0.87091272  0.17589317  0.00508054     0.10500
H517        H  0.91811692  0.18091310  0.91720586     0.15900
H518        H  0.09488278  0.19951040  0.90563982     0.11800
H519        H  0.09965005  0.22710373  0.17330679     0.14600
H520        H  0.92354293  0.21240585  0.18443279     0.14400
C521        C  0.03961561  0.51945631  0.36431309    -0.18500
C522        C  0.04298149  0.57613717  0.35305600    -0.20600
C523        C  0.02249183  0.59730131  0.30479950     0.20000
C524        C  0.99586888  0.56187148  0.26887014    -0.03500
C525        C  0.99240720  0.50498594  0.28038563    -0.06600
C526        C  0.01659876  0.48334770  0.32706656     0.20300
C527        C  0.96563529  0.46959733  0.24468156     0.18500
C528        C  0.94235703  0.49095791  0.19792894    -0.18100
C529        C  0.94658399  0.54742082  0.18594093    -0.20300
C530        C  0.97373228  0.58307603  0.22091969     0.20000
C531        C  0.97924980  0.63953396  0.20890266    -0.33300
C532        C  0.00675599  0.67471397  0.24421120     0.00600
C533        C  0.02812484  0.65331834  0.29194007    -0.24700
C534        C  0.01950067  0.42596466  0.33414116    -0.29200
C535        C  0.99750082  0.39052931  0.29540643     0.06300
C536        C  0.96502156  0.41302337  0.25482419    -0.27900
H537        H  0.05579841  0.50373523  0.40160957     0.11000
H538        H  0.06234388  0.60327943  0.38163106     0.12200
H539        H  0.92211637  0.46380089  0.16997120     0.11200
H540        H  0.92906003  0.56308174  0.14918672     0.10500
H541        H  0.96099976  0.65616572  0.17291252     0.15900
H542        H  0.04926712  0.68009659  0.31938234     0.11800
H543        H  0.04010182  0.40915634  0.36863781     0.14600
H544        H  0.94194077  0.38639854  0.22860436     0.14400
C545        C  0.07163190  0.52579609  0.69441134    -0.18500
C546        C  0.06940229  0.46807588  0.69766249    -0.20600
C547        C  0.03787653  0.44124850  0.73913288     0.20000
C548        C  0.00705379  0.47275913  0.77676269    -0.03500
C549        C  0.00893563  0.53084649  0.77323090    -0.06600
C550        C  0.04196337  0.55741393  0.73227888     0.20300
C551        C  0.97861473  0.56230767  0.81129368     0.18500
C552        C  0.94558959  0.53553280  0.85156770    -0.18100
C553        C  0.94439439  0.47793851  0.85544485    -0.20300
C554        C  0.97540109  0.44630606  0.81875307     0.20000
C555        C  0.97646030  0.38879249  0.82417966    -0.33300
C556        C  0.00858185  0.35738862  0.78800855     0.00600
C557        C  0.03777032  0.38357308  0.74457047    -0.24700
C558        C  0.04533358  0.61513125  0.73034980    -0.29200
C559        C  0.01650910  0.64652813  0.76902192     0.06300
C560        C  0.98259952  0.61996609  0.80893824    -0.27900
H561        H  0.09702321  0.54571855  0.66264249     0.11000
H562        H  0.09314576  0.44445059  0.66837535     0.12200
H563        H  0.92165190  0.55910723  0.88075933     0.11200
H564        H  0.92028869  0.45822587  0.88790717     0.10500
H565        H  0.95230283  0.36841489  0.85661716     0.15900
H566        H  0.06177690  0.35934656  0.71604982     0.11800
H567        H  0.07133102  0.63540451  0.69936765     0.14600
H568        H  0.95905706  0.64413568  0.83797236     0.14400
C569        C  0.90834959  0.80795879  0.01946879    -0.18500
C570        C  0.91273216  0.80329241  0.96378658    -0.20600
C571        C  0.95660199  0.82873118  0.93489693     0.20000
C572        C  0.99726034  0.85885013  0.96152461    -0.03500
C573        C  0.99374599  0.86235437  0.01800108    -0.06600
C574        C  0.95001205  0.83504358  0.04662955     0.20300
C575        C  0.03700795  0.88714798  0.04597459     0.18500
C576        C  0.08065252  0.91325486  0.01650236    -0.18100
C577        C  0.08501093  0.90848472  0.96006360    -0.20300
C578        C  0.04464624  0.87894255  0.93262728     0.20000
C579        C  0.05309522  0.86394075  0.87838734    -0.33300
C580        C  0.01293997  0.83200368  0.85278544     0.00600
C581        C  0.96318691  0.81882985  0.88047976    -0.24700
C582        C  0.95255426  0.82761699  0.10164982    -0.29200
C583        C  0.99823039  0.84635569  0.12951882     0.06300
C584        C  0.03856572  0.88002462  0.10232585    -0.27900
H585        H  0.87501978  0.78655023  0.04166491     0.11000
H586        H  0.88410358  0.77678944  0.94336958     0.12200
H587        H  0.11289006  0.93423199  0.03744969     0.11200
H588        H  0.12112659  0.92534823  0.93835296     0.10500
H589        H  0.09224007  0.87361284  0.85857664     0.15900
H590        H  0.93220050  0.79382290  0.86113832     0.11800
H591        H  0.92147323  0.80126022  0.12193219     0.14600
H592        H  0.07346513  0.89648129  0.12295981     0.14400
C593        C  0.00304736  0.06179320  0.09453554    -0.18500
C594        C  0.94553487  0.05679840  0.08945222    -0.20600
C595        C  0.91375345  0.02420778  0.12665880     0.20000
C596        C  0.94108540  0.99429860  0.16636564    -0.03500
C597        C  0.99644030  0.00364391  0.17493884    -0.06600
C598        C  0.02856582  0.03706299  0.13878753     0.20300
C599        C  0.01935007  0.97879617  0.22017159     0.18500
C600        C  0.98686952  0.95052026  0.25908834    -0.18100
C601        C  0.93232923  0.94022212  0.24961552    -0.20300
C602        C  0.91189450  0.95644025  0.19993440     0.20000
C603        C  0.85999140  0.94117259  0.18636490    -0.33300
C604        C  0.82896742  0.98405934  0.16594516     0.00600
C605        C  0.85538922  0.02347436  0.13022331    -0.24700
C606        C  0.08493615  0.04446355  0.14846562    -0.29200
C607        C  0.10777966  0.01607325  0.19248535     0.06300
C608        C  0.07445213  0.98203994  0.22630185    -0.27900
H609        H  0.02734717  0.08556098  0.06471218     0.11000
H610        H  0.92614106  0.07727685  0.05630295     0.12200
H611        H  0.00497067  0.93411853  0.29480698     0.11200
H612        H  0.90719896  0.91681184  0.27924331     0.10500
H613        H  0.83994252  0.90811122  0.21025656     0.15900
H614        H  0.83224592  0.05459175  0.10951104     0.11800
H615        H  0.11009759  0.07104158  0.12198305     0.14600
H616        H  0.09168899  0.95840998  0.25913313     0.14400
C617        C  0.15288755  0.95619365  0.47007647    -0.18500
C618        C  0.15796723  0.95261251  0.52596741    -0.20600
C619        C  0.20413400  0.97574107  0.54994296     0.20000
C620        C  0.24710078  0.99985068  0.51731770    -0.03500
C621        C  0.24234417  0.00252963  0.46072141    -0.06600
C622        C  0.19442884  0.98152677  0.43736589     0.20300
C623        C  0.28393086  0.02889523  0.42788915     0.18500
C624        C  0.33114075  0.05002930  0.45196946    -0.18100
C625        C  0.33585603  0.04737905  0.50832282    -0.20300
C626        C  0.29331407  0.02380323  0.54143060     0.20000
C627        C  0.29423090  0.02697095  0.59816424    -0.33300
C628        C  0.24968036  0.00603607  0.63064060     0.00600
C629        C  0.20643395  0.97780793  0.60614645    -0.24700
C630        C  0.18801724  0.98740383  0.38181580    -0.29200
C631        C  0.22817107  0.01518041  0.34910141     0.06300
C632        C  0.27609047  0.03572922  0.37211925    -0.27900
H633        H  0.11566478  0.94089425  0.45255362     0.11000
H634        H  0.12473577  0.93386313  0.55060123     0.12200
H635        H  0.36357258  0.07027492  0.42753010     0.11200
H636        H  0.37183337  0.06558067  0.52613774     0.10500
H637        H  0.32774864  0.04885751  0.61654100     0.15900
H638        H  0.17341309  0.95866323  0.63071855     0.11800
H639        H  0.15147875  0.97029467  0.36400312     0.14600
H640        H  0.30561983  0.05909055  0.34697792     0.14400
C641        C  0.84043514  0.06222908  0.46576434    -0.18500
C642        C  0.83971883  0.06688143  0.52216193    -0.20600
C643        C  0.79815872  0.04026284  0.55415570     0.20000
C644        C  0.75581452  0.01067415  0.52920884    -0.03500
C645        C  0.75636576  0.00647639  0.47257119    -0.06600
C646        C  0.79943831  0.03151766  0.44065298     0.20300
C647        C  0.71446513  0.97601343  0.44800607     0.18500
C648        C  0.67174671  0.95112879  0.47969164    -0.18100
C649        C  0.67145209  0.95488251  0.53590021    -0.20300
C650        C  0.71377729  0.98373271  0.56090543     0.20000
C651        C  0.71631864  0.98341858  0.61709698    -0.33300
C652        C  0.75967372  0.01060747  0.64226880     0.00600
C653        C  0.79916630  0.04101545  0.61065073    -0.24700
C654        C  0.80033537  0.02574642  0.38421044    -0.29200
C655        C  0.75850015  0.99532035  0.35982799     0.06300
C656        C  0.71646550  0.96983856  0.39214468    -0.27900
H657        H  0.87325557  0.08200740  0.44169545     0.11000
H658        H  0.87227619  0.09018243  0.54078629     0.12200
H659        H  0.63925087  0.92776161  0.46104577     0.11200
H660        H  0.63890926  0.93411064  0.55985117     0.10500
H661        H  0.68609639  0.95904799  0.64056030     0.15900
H662        H  0.83161329  0.06403625  0.62966427     0.11800
H663        H  0.83241234  0.04621453  0.35940765     0.14600
H664        H  0.68524378  0.94436289  0.37402854     0.14400
C665        C  0.03666147  0.04940261  0.89542291    -0.18500
C666        C  0.97866395  0.04869761  0.89490733    -0.20600
C667        C  0.95098351  0.01957695  0.85473841     0.20000
C668        C  0.98216619  0.98759030  0.81795344    -0.03500
C669        C  0.03937012  0.98695097  0.81942177    -0.06600
C670        C  0.06757695  0.01968592  0.85660005     0.20300
C671        C  0.06857730  0.95465073  0.78164393     0.18500
C672        C  0.04272866  0.93025611  0.73836218    -0.18100
C673        C  0.98662880  0.93281481  0.73583943    -0.20300
C674        C  0.95641358  0.95750172  0.77758634     0.20000
C675        C  0.90060777  0.95465513  0.77717110    -0.33300
C676        C  0.86877959  0.99139401  0.80761370     0.00600
C677        C  0.89360234  0.02348606  0.84790613    -0.24700
C678        C  0.12554056  0.02444436  0.85047470    -0.29200
C679        C  0.15310130  0.99161350  0.81118614     0.06300
C680        C  0.12404838  0.95043455  0.78485351    -0.27900
H681        H  0.05722654  0.07366389  0.92546713     0.11000
H682        H  0.95552926  0.07163001  0.92504672     0.12200
H683        H  0.06581400  0.90936149  0.70653166     0.11200
H684        H  0.96652587  0.91402063  0.70224747     0.10500
H685        H  0.88179710  0.92829402  0.74737623     0.15900
H686        H  0.86944995  0.05154560  0.87243315     0.11800
H687        H  0.14779382  0.05458087  0.87365715     0.14600
H688        H  0.14536555  0.92320982  0.75671746     0.14400
C689        C  0.20098581  0.03308658  0.04103847    -0.18500
C690        C  0.20550702  0.09057862  0.03969384    -0.20600
C691        C  0.25054321  0.11715799  0.01293841     0.20000
C692        C  0.29054387  0.08597512  0.98549444    -0.03500
C693        C  0.28527146  0.02759037  0.98573893    -0.06600
C694        C  0.24091153  0.00118424  0.01474673     0.20300
C695        C  0.32458129  0.99571160  0.95784219     0.18500
C696        C  0.36858662  0.02278990  0.92921801    -0.18100
C697        C  0.37454231  0.08080421  0.93014722    -0.20300
C698        C  0.33599834  0.11303936  0.95879153     0.20000
C699        C  0.34174553  0.17151981  0.96153504    -0.33300
C700        C  0.30158188  0.20294666  0.98961097     0.00600
C701        C  0.25620573  0.17450044  0.01422443    -0.24700
C702        C  0.23770854  0.94338786  0.01833814    -0.29200
C703        C  0.27793461  0.91060919  0.99321485     0.06300
C704        C  0.31972513  0.93748548  0.96029958    -0.27900
H705        H  0.16670153  0.01352212  0.06332974     0.11000
H706        H  0.17437762  0.11431631  0.06069501     0.12200
H707        H  0.39915207  0.99902595  0.90714523     0.11200
H708        H  0.40944972  0.10038347  0.90870918     0.10500
H709        H  0.37662425  0.19231679  0.94123323     0.15900
H710        H  0.22503334  0.19645199  0.03621666     0.11800
H711        H  0.20426904  0.92391401  0.04177039     0.14600
H712        H  0.34927305  0.91341334  0.93733161     0.14400
C713        C  0.55917083  0.38024972  0.07589614    -0.18500
C714        C  0.50971585  0.40799963  0.07125291    -0.20600
C715        C  0.47845685  0.40033365  0.02527664     0.20000
C716        C  0.50017522  0.37013230  0.98108052    -0.03500
C717        C  0.54752195  0.33939736  0.98718063    -0.06600
C718        C  0.57634837  0.34336586  0.03547755     0.20300
C719        C  0.56290986  0.30081148  0.94710289     0.18500
C720        C  0.53459951  0.29758382  0.89903617    -0.18100
C721        C  0.48849535  0.32944545  0.89233178    -0.20300
C722        C  0.47029069  0.36441330  0.93369449     0.20000
C723        C  0.41785258  0.38518486  0.93270195    -0.33300
C724        C  0.39101979  0.39615170  0.98264054     0.00600
C725        C  0.42280230  0.41353748  0.02594149    -0.24700
C726        C  0.62009615  0.30833761  0.04330110    -0.29200
C727        C  0.63275820  0.26792058  0.00489182     0.06300
C728        C  0.60450570  0.26411047  0.95705028    -0.27900
H729        H  0.58189277  0.38474275  0.11253778     0.11000
H730        H  0.49428488  0.43232845  0.10491310     0.12200
H731        H  0.54645214  0.26849565  0.86801354     0.11200
H732        H  0.46411777  0.32283199  0.85722381     0.10500
H733        H  0.39415706  0.37588161  0.89752561     0.15900
H734        H  0.40369377  0.42846313  0.06303396     0.11800
H735        H  0.64325305  0.31125629  0.07976827     0.14600
H736        H  0.61549916  0.23310287  0.92739880     0.14400
C737        C  0.46280993  0.66052146  0.10283773    -0.18500
C738        C  0.51394738  0.63611208  0.10468075    -0.20600
C739        C  0.54307662  0.62435850  0.05639243     0.20000
C740        C  0.51780537  0.63087786  0.00644027    -0.03500
C741        C  0.46738961  0.65763394  0.00468565    -0.06600
C742        C  0.44167331  0.67543138  0.05308761     0.20300
C743        C  0.44518087  0.67066848  0.95434542     0.18500
C744        C  0.46902620  0.64878419  0.90709029    -0.18100
C745        C  0.51996259  0.62341407  0.90842785    -0.20300
C746        C  0.54618907  0.61805206  0.95774758     0.20000
C747        C  0.60222049  0.60780327  0.95859799    -0.33300
C748        C  0.63024408  0.61243821  0.00741064     0.00600
C749        C  0.59913135  0.61443987  0.05667477    -0.24700
C750        C  0.39757521  0.71079228  0.05079080    -0.29200
C751        C  0.37974524  0.72923730  0.00072400     0.06300
C752        C  0.40106713  0.70677727  0.95250815    -0.27900
H753        H  0.44160862  0.67115324  0.13994181     0.11000
H754        H  0.53233654  0.63053865  0.14345865     0.12200
H755        H  0.44916496  0.65271443  0.86925445     0.11200
H756        H  0.54019659  0.61119406  0.87073827     0.10500
H757        H  0.62461157  0.60548718  0.92010662     0.15900
H758        H  0.61910929  0.61776234  0.09494391     0.11800
H759        H  0.37875416  0.72558484  0.08797375     0.14600
H760        H  0.38434393  0.71836183  0.91401465     0.14400
C761        C  0.64518077  0.97429035  0.05492353    -0.18500
C762        C  0.64197994  0.91650237  0.05278137    -0.20600
C763        C  0.68545678  0.88653272  0.02959958     0.20000
C764        C  0.73255962  0.91535513  0.00834858    -0.03500
C765        C  0.73609865  0.97379902  0.01124273    -0.06600
C766        C  0.69224700  0.00324016  0.03480257     0.20300
C767        C  0.78320653  0.00270782  0.99016530     0.18500
C768        C  0.82683256  0.97255849  0.96745973    -0.18100
C769        C  0.82243284  0.91502096  0.96258651    -0.20300
C770        C  0.77553023  0.88595564  0.98305344     0.20000
C771        C  0.77063436  0.82819205  0.97847427    -0.33300
C772        C  0.72526819  0.79856611  0.00165141     0.00600
C773        C  0.68249246  0.82840165  0.02698922    -0.24700
C774        C  0.69551853  0.06117671  0.03687041    -0.29200
C775        C  0.74041939  0.09125545  0.01238703     0.06300
C776        C  0.78521941  0.06111405  0.99093035    -0.27900
H777        H  0.61031712  0.99645963  0.07143142     0.11000
H778        H  0.60512559  0.89530392  0.06858486     0.12200
H779        H  0.86410118  0.99352651  0.95274054     0.11200
H780        H  0.85576611  0.89350954  0.94255711     0.10500
H781        H  0.80152042  0.80628141  0.95576409     0.15900
H782        H  0.64711589  0.80658255  0.04521969     0.11800
H783        H  0.66225713  0.08282339  0.05712969     0.14600
H784        H  0.82143509  0.08289198  0.97444643     0.14400
C785        C  0.44539875  0.00449348  0.64444243    -0.18500
C786        C  0.44688514  0.94663087  0.64585539    -0.20600
C787        C  0.47646938  0.91910735  0.68547139     0.20000
C788        C  0.50491794  0.95036431  0.72387856    -0.03500
C789        C  0.50358512  0.00865639  0.72230637    -0.06600
C790        C  0.47335622  0.03583330  0.68262397     0.20300
C791        C  0.53293027  0.03968601  0.76016816     0.18500
C792        C  0.56322426  0.01230225  0.79925116    -0.18100
C793        C  0.56382122  0.95459255  0.80135827    -0.20300
C794        C  0.53460042  0.92341287  0.76407170     0.20000
C795        C  0.53414975  0.86571334  0.76682452    -0.33300
C796        C  0.50581859  0.83405918  0.72914764     0.00600
C797        C  0.47769368  0.86099727  0.68788550    -0.24700
C798        C  0.47237709  0.09383532  0.68130081    -0.29200
C799        C  0.50232867  0.12509335  0.71835342     0.06300
C800        C  0.53228672  0.09755801  0.75777908    -0.27900
H801        H  0.42277560  0.02476685  0.61316788     0.11000
H802        H  0.42483158  0.92343246  0.61600624     0.12200
H803        H  0.58632967  0.03551920  0.82831294     0.11200
H804        H  0.58721034  0.93432251  0.83214123     0.10500
H805        H  0.55572168  0.84560798  0.79889051     0.15900
H806        H  0.45508921  0.83687625  0.65910580     0.11800
H807        H  0.44859003  0.11456675  0.65113499     0.14600
H808        H  0.55665244  0.12096920  0.78565051     0.14400
C809        C  0.60191833  0.32471182  0.43360311    -0.18500
C810        C  0.60455515  0.32834287  0.48992515    -0.20600
C811        C  0.55676975  0.32298265  0.52314896     0.20000
C812        C  0.50523603  0.31879971  0.49920067    -0.03500
C813        C  0.50226434  0.31660728  0.44229225    -0.06600
C814        C  0.55108222  0.31748214  0.40955572     0.20300
C815        C  0.45073879  0.31032950  0.41839496     0.18500
C816        C  0.40257075  0.30919650  0.45143321    -0.18100
C817        C  0.40573285  0.31010775  0.50792493    -0.20300
C818        C  0.45703240  0.31262587  0.53207944     0.20000
C819        C  0.46125977  0.30434195  0.58806314    -0.33300
C820        C  0.51301720  0.30341068  0.61224196     0.00600
C821        C  0.56027025  0.31679565  0.57952342    -0.24700
C822        C  0.54833845  0.30849160  0.35382421    -0.29200
C823        C  0.49756348  0.29774004  0.33086793     0.06300
C824        C  0.44873203  0.30139745  0.36248283    -0.27900
H825        H  0.63956879  0.32658219  0.40888038     0.11000
H826        H  0.64414893  0.33266073  0.50774216     0.12200
H827        H  0.36265171  0.30512476  0.43373169     0.11200
H828        H  0.36823058  0.30672117  0.53280090     0.10500
H829        H  0.42432856  0.29390363  0.61209691     0.15900
H830        H  0.60064336  0.31712564  0.59601937     0.11800
H831        H  0.58586990  0.30488693  0.32917298     0.14600
H832        H  0.40972743  0.29195771  0.34450254     0.14400
C833        C  0.40290042  0.61585259  0.55408867    -0.18500
C834        C  0.40248951  0.61718728  0.49766177    -0.20600
C835        C  0.45040569  0.63230922  0.46756617     0.20000
C836        C  0.49966243  0.64273185  0.49440149    -0.03500
C837        C  0.50068336  0.63770684  0.55075059    -0.06600
C838        C  0.45150266  0.62684875  0.58070601     0.20300
C839        C  0.55032146  0.64617817  0.57730257     0.18500
C840        C  0.59792547  0.66295950  0.54774000    -0.18100
C841        C  0.59534986  0.67332524  0.49241466    -0.20300
C842        C  0.54681861  0.66242632  0.46555234     0.20000
C843        C  0.54364316  0.67476010  0.41094449    -0.33300
C844        C  0.49491136  0.66460747  0.38338483     0.00600
C845        C  0.44894114  0.64114086  0.41170359    -0.24700
C846        C  0.45134815  0.62902659  0.63682095    -0.29200
C847        C  0.50023635  0.63989463  0.66360648     0.06300
C848        C  0.55037070  0.64288076  0.63341374    -0.27900
H849        H  0.36553360  0.60662579  0.57735757     0.11000
H850        H  0.36427483  0.60921032  0.47777022     0.12200
H851        H  0.63603028  0.67129890  0.56777260     0.11200
H852        H  0.63077562  0.69082794  0.47060009     0.10500
H853        H  0.57873782  0.69496828  0.39034009     0.15900
H854        H  0.41065522  0.63374495  0.39219654     0.11800
H855        H  0.41207536  0.62712791  0.65827930     0.14600
H856        H  0.58821437  0.65318530  0.65306291     0.14400
C857        C  0.57708372  0.99887342  0.18869470    -0.18500
C858        C  0.57403354  0.94160254  0.19357886    -0.20600
C859        C  0.53345918  0.91651674  0.22762308     0.20000
C860        C  0.49619524  0.94888679  0.25787071    -0.03500
C861        C  0.49771914  0.00629676  0.25091323    -0.06600
C862        C  0.53814739  0.03126753  0.21592877     0.20300
C863        C  0.45895070  0.03863747  0.27894598     0.18500
C864        C  0.42094941  0.01374776  0.31594721    -0.18100
C865        C  0.41988670  0.95655114  0.32380434    -0.20300
C866        C  0.45714010  0.92382325  0.29452440     0.20000
C867        C  0.45676656  0.86656283  0.30146684    -0.33300
C868        C  0.49340049  0.83467116  0.27045698     0.00600
C869        C  0.52991402  0.85950203  0.23229405    -0.24700
C870        C  0.53894228  0.08821054  0.20829665    -0.29200
C871        C  0.49844857  0.12063674  0.23365765     0.06300
C872        C  0.45894612  0.09536486  0.26944655    -0.27900
H873        H  0.60941869  0.01789343  0.16321726     0.11000
H874        H  0.60379273  0.91696953  0.17141124     0.12200
H875        H  0.39282850  0.03873535  0.33919551     0.11200
H876        H  0.39003577  0.93802345  0.35251661     0.10500
H877        H  0.42764778  0.84671340  0.33011592     0.15900
H878        H  0.55643614  0.83478923  0.20674887     0.11800
H879        H  0.57130538  0.10570729  0.18233181     0.14600
H880        H  0.42832045  0.12031589  0.29019970     0.14400
C881        C  0.64192589  0.48546654  0.02918065    -0.18500
C882        C  0.64267048  0.48053437  0.97292286    -0.20600
C883        C  0.69176509  0.46870147  0.94450504     0.20000
C884        C  0.73900768  0.45588571  0.97315993    -0.03500
C885        C  0.73827201  0.46105522  0.02976157    -0.06600
C886        C  0.69024152  0.47863353  0.05745940     0.20300
C887        C  0.78644839  0.45173362  0.05812900     0.18500
C888        C  0.83340215  0.43225200  0.03046488    -0.18100
C889        C  0.83394015  0.42653268  0.97423153    -0.20300
C890        C  0.78791532  0.44133135  0.94504597     0.20000
C891        C  0.79070391  0.44518999  0.88845846    -0.33300
C892        C  0.74559355  0.46441487  0.86009271     0.00600
C893        C  0.69537416  0.47303671  0.88810401    -0.24700
C894        C  0.69186083  0.49086760  0.11249306    -0.29200
C895        C  0.74062654  0.48435411  0.14068352     0.06300
C896        C  0.78729259  0.46340074  0.11331640    -0.27900
H897        H  0.60412927  0.49697437  0.05025655     0.11000
H898        H  0.60553806  0.48856346  0.95148931     0.12200
H899        H  0.87022007  0.42319679  0.05204752     0.11200
H900        H  0.87094393  0.41243195  0.95364384     0.10500
H901        H  0.82861816  0.43545646  0.86678114     0.15900
H902        H  0.66006455  0.48696874  0.86663420     0.11800
H903        H  0.65551564  0.50730770  0.13257040     0.14600
H904        H  0.82449185  0.45581333  0.13457172     0.14400
C905        C  0.53747515  0.44773292  0.41071969    -0.18500
C906        C  0.47953581  0.44952519  0.41340796    -0.20600
C907        C  0.45136030  0.47997709  0.37460555     0.20000
C908        C  0.48220886  0.51051909  0.33489165    -0.03500
C909        C  0.53916063  0.50878746  0.33262867    -0.06600
C910        C  0.56769819  0.47547623  0.36880078     0.20300
C911        C  0.56778733  0.54071150  0.29313570     0.18500
C912        C  0.54152085  0.56320084  0.24912781    -0.18100
C913        C  0.48510795  0.56446678  0.25068705    -0.20300
C914        C  0.45618232  0.54261014  0.29610483     0.20000
C915        C  0.40113308  0.54987622  0.30121408    -0.33300
C916        C  0.36896927  0.51264555  0.33261594     0.00600
C917        C  0.39352128  0.47899812  0.37192917    -0.24700
C918        C  0.62513191  0.46997292  0.35956087    -0.29200
C919        C  0.65241072  0.50670897  0.32212631     0.06300
C920        C  0.62272287  0.54817124  0.29703896    -0.27900
H921        H  0.55856029  0.42555882  0.44166148     0.11000
H922        H  0.45689190  0.42717751  0.44551104     0.12200
H923        H  0.56474925  0.58280642  0.21574291     0.11200
H924        H  0.46435628  0.58459620  0.21794402     0.10500
H925        H  0.38221266  0.57637483  0.27158204     0.15900
H926        H  0.36897690  0.45111466  0.39790195     0.11800
H927        H  0.64744322  0.43832226  0.38040687     0.14600
H928        H  0.64315185  0.57800247  0.26944721     0.14400
C929        C  0.50720120  0.51100134  0.59700860    -0.18500
C930        C  0.56498306  0.51310456  0.59078964    -0.20600
C931        C  0.59681804  0.48583889  0.62860749     0.20000
C932        C  0.56976950  0.45160392  0.66799001    -0.03500
C933        C  0.51365888  0.45742334  0.67950491    -0.06600
C934        C  0.48181789  0.48929248  0.64503399     0.20300
C935        C  0.49020005  0.43264707  0.72665351     0.18500
C936        C  0.52208817  0.40089427  0.76067541    -0.18100
C937        C  0.57657508  0.39110806  0.74651865    -0.20300
C938        C  0.60014503  0.41546964  0.69944338     0.20000
C939        C  0.65584288  0.41190132  0.68828752    -0.33300
C940        C  0.68190747  0.46104737  0.66971781     0.00600
C941        C  0.65398232  0.49487209  0.63299177    -0.24700
C942        C  0.42658674  0.49976817  0.66071188    -0.29200
C943        C  0.40480776  0.47920259  0.71101272     0.06300
C944        C  0.43571996  0.44137263  0.74035423    -0.27900
H945        H  0.48278367  0.52837815  0.56577139     0.11000
H946        H  0.58449904  0.53571111  0.55696507     0.12200
H947        H  0.50473648  0.38349017  0.79789607     0.11200
H948        H  0.60082736  0.36654842  0.77344568     0.10500
H949        H  0.67869207  0.38247670  0.71168532     0.15900
H950        H  0.67458228  0.52957287  0.61230576     0.11800
H951        H  0.40139108  0.52427742  0.63486553     0.14600
H952        H  0.41770772  0.41939247  0.77539050     0.14400
C953        C  0.18518858  0.45394652  0.04738761    -0.18500
C954        C  0.18572528  0.45778994  0.99068451    -0.20600
C955        C  0.23056656  0.48290892  0.96193282     0.20000
C956        C  0.27443693  0.50560954  0.99078887    -0.03500
C957        C  0.27349947  0.50254864  0.04762086    -0.06600
C958        C  0.22909876  0.47587030  0.07612929     0.20300
C959        C  0.31817300  0.52443986  0.07577222     0.18500
C960        C  0.36338199  0.54852906  0.04743593    -0.18100
C961        C  0.36485534  0.55029580  0.99120421    -0.20300
C962        C  0.32067489  0.52920037  0.96279670     0.20000
C963        C  0.32358931  0.52899675  0.90667874    -0.33300
C964        C  0.28259858  0.50266941  0.87745328     0.00600
C965        C  0.23468652  0.48196871  0.90497396    -0.24700
C966        C  0.23031316  0.47061975  0.13266568    -0.29200
C967        C  0.27463439  0.49315682  0.16048454     0.06300
C968        C  0.31776599  0.52075274  0.13184902    -0.27900
H969        H  0.15090141  0.43311490  0.06868505     0.11000
H970        H  0.15198159  0.43955661  0.96926175     0.12200
H971        H  0.39837740  0.56416907  0.06873574     0.11200
H972        H  0.40125059  0.56648441  0.96978386     0.10500
H973        H  0.35905726  0.54822837  0.88592051     0.15900
H974        H  0.20281204  0.46143477  0.88278407     0.11800
H975        H  0.19715310  0.44883238  0.15478769     0.14600
H976        H  0.35111843  0.53991422  0.15319709     0.14400
C977        C  0.99177162  0.88678401  0.40523868    -0.18500
C978        C  0.04475408  0.86538533  0.40315355    -0.20600
C979        C  0.06517769  0.83887765  0.44889178     0.20000
C980        C  0.03589712  0.84228787  0.49881168    -0.03500
C981        C  0.98512941  0.86870063  0.50176117    -0.06600
C982        C  0.96104089  0.88681852  0.45402710     0.20300
C983        C  0.95565794  0.87096418  0.55156880     0.18500
C984        C  0.97881430  0.85086606  0.59864886    -0.18100
C985        C  0.02851940  0.82359006  0.59533997    -0.20300
C986        C  0.05542207  0.81615827  0.54530947     0.20000
C987        C  0.09985345  0.78099006  0.54060749    -0.33300
C988        C  0.12755590  0.77520180  0.49069347     0.00600
C989        C  0.11288932  0.80741769  0.44584414    -0.24700
C990        C  0.90481161  0.89758592  0.45493256    -0.29200
C991        C  0.87321031  0.88924027  0.50332066     0.06300
C992        C  0.90080251  0.88548375  0.55240034    -0.27900
H993        H  0.97318170  0.90064172  0.36879906     0.11000
H994        H  0.06838057  0.86738506  0.36555032     0.12200
H995        H  0.95624079  0.85200457  0.63701688     0.11200
H996        H  0.04509593  0.80649309  0.63124383     0.10500
H997        H  0.11268304  0.75810217  0.57572188     0.15900
H998        H  0.13721386  0.80624002  0.40849178     0.11800
H999        H  0.88528070  0.90369249  0.41674302     0.14600
H1000       H  0.87802842  0.88079638  0.59066502     0.14400
C1001       C  0.16012479  0.42176598  0.42815268    -0.18500
C1002       C  0.16855132  0.47922159  0.42214345    -0.20600
C1003       C  0.19941651  0.50895800  0.45933639     0.20000
C1004       C  0.22373452  0.47987509  0.50176997    -0.03500
C1005       C  0.21691025  0.42153252  0.50676363    -0.06600
C1006       C  0.18389231  0.39238812  0.47056190     0.20300
C1007       C  0.24355526  0.39238942  0.54774578     0.18500
C1008       C  0.27627202  0.42171071  0.58347284    -0.18100
C1009       C  0.28095894  0.47947794  0.58015026    -0.20300
C1010       C  0.25472535  0.50900477  0.53946680     0.20000
C1011       C  0.25878968  0.56706027  0.53631972    -0.33300
C1012       C  0.23550707  0.59737919  0.49374966     0.00600
C1013       C  0.20624474  0.56707130  0.45499271    -0.24700
C1014       C  0.17652376  0.33441337  0.47668825    -0.29200
C1015       C  0.20452647  0.30477497  0.51643737     0.06300
C1016       C  0.23807817  0.33437664  0.55164064    -0.27900
H1017       H  0.13573678  0.40016768  0.39906445     0.11000
H1018       H  0.15123604  0.50046092  0.38811574     0.12200
H1019       H  0.29820799  0.39961873  0.61386396     0.11200
H1020       H  0.30584848  0.50102884  0.60884646     0.10500
H1021       H  0.27881939  0.58750293  0.56858213     0.15900
H1022       H  0.18733096  0.58911634  0.42222913     0.11800
H1023       H  0.15113822  0.31204724  0.44905971     0.14600
H1024       H  0.26042843  0.31199942  0.58186524     0.14400
C1025       C  0.69605618  0.58295764  0.46084749    -0.18500
C1026       C  0.68901565  0.52585760  0.46742253    -0.20600
C1027       C  0.72763614  0.49474100  0.49451640     0.20000
C1028       C  0.77021407  0.52242967  0.52109420    -0.03500
C1029       C  0.77573912  0.58076665  0.51714151    -0.06600
C1030       C  0.73952527  0.61075073  0.48522881     0.20300
C1031       C  0.81808169  0.60884103  0.54393084     0.18500
C1032       C  0.85347752  0.57805083  0.57586326    -0.18100
C1033       C  0.84820909  0.52012449  0.57939149    -0.20300
C1034       C  0.80744997  0.49183569  0.55105186     0.20000
C1035       C  0.80438479  0.43358553  0.55051091    -0.33300
C1036       C  0.76619013  0.40518261  0.51821719     0.00600
C1037       C  0.72562243  0.43657192  0.49346603    -0.24700
C1038       C  0.74679499  0.66802723  0.47882771    -0.29200
C1039       C  0.78737010  0.69696081  0.50651628     0.06300
C1040       C  0.82356809  0.66702147  0.53868893    -0.27900
H1041       H  0.66737830  0.60521215  0.43662776     0.11000
H1042       H  0.65374055  0.50593629  0.45072615     0.12200
H1043       H  0.88572347  0.59866636  0.59751561     0.11200
H1044       H  0.87674068  0.49736091  0.60344370     0.10500
H1045       H  0.83325451  0.41054415  0.57383289     0.15900
H1046       H  0.69368402  0.41605045  0.47144286     0.11800
H1047       H  0.72070089  0.69044709  0.45205006     0.14600
H1048       H  0.85488162  0.68895455  0.56048786     0.14400
C1049       C  0.96777148  0.14254566  0.42112778    -0.18500
C1050       C  0.01668990  0.11377046  0.42390695    -0.20600
C1051       C  0.04463842  0.11234159  0.47247625     0.20000
C1052       C  0.02116804  0.13615743  0.51950645    -0.03500
C1053       C  0.97433420  0.16823819  0.51574149    -0.06600
C1054       C  0.94764487  0.17183168  0.46613926     0.20300
C1055       C  0.95615816  0.19918029  0.56077790     0.18500
C1056       C  0.98146651  0.19338162  0.61046655    -0.18100
C1057       C  0.02633844  0.15901874  0.61504088    -0.20300
C1058       C  0.04781437  0.13238024  0.56910645     0.20000
C1059       C  0.09994963  0.11002071  0.56958838    -0.33300
C1060       C  0.12922135  0.10539776  0.51973467     0.00600
C1061       C  0.09883830  0.09495190  0.47338012    -0.24700
C1062       C  0.90155928  0.20482016  0.46275097    -0.29200
C1063       C  0.88502797  0.23694256  0.50689291     0.06300
C1064       C  0.91322425  0.23562030  0.55508944    -0.27900
H1065       H  0.94698586  0.14340745  0.38328872     0.11000
H1066       H  0.03381885  0.09485184  0.38762186     0.12200
H1067       H  0.96709457  0.21602721  0.64539960     0.11200
H1068       H  0.04668258  0.15668969  0.65328675     0.10500
H1069       H  0.12180134  0.11257617  0.60691410     0.15900
H1070       H  0.11891568  0.08323906  0.43560937     0.11800
H1071       H  0.87880394  0.20616127  0.42596065     0.14600
H1072       H  0.90067074  0.26158913  0.58856121     0.14400
loop_ 
_geom_bond_atom_site_label_1 
_geom_bond_atom_site_label_2 
_geom_bond_distance 
_geom_bond_site_symmetry_2 
_ccdc_geom_bond_type 
O1           Ni7   1.939       .  S
O1           C22   1.270       .  A
O2          Ni25   2.003       .  S
O2           C11   1.302       .  A
O3           Ni7   1.929       .  S
O3          Ni25   1.913       .  S
O3          Ni19   1.924       .  S
O3           H26   0.967       .  S
C4           O21   1.286       .  A
C4           O13   1.282       .  A
C4          C282   1.500       .  S
O5          Ni24   1.949       .  S
O5           C11   1.274       .  A
O6          Ni24   1.927       .  S
O6            C8   1.270       .  A
Ni7          O10   1.930       .  S
Ni7          O12   1.932       .  S
C8           O18   1.293       .  A
C8          C106   1.514       .  S
O9          Ni25   1.944       .  S
O9           C15   1.297       .  A
O10          C15   1.277       .  A
C11         C425   1.546       .  S
O12          C14   1.270       .  A
O13         Ni24   1.955       .  S
C14          O20   1.297       .  A
C14         C351   1.527       .  S
C15          C53   1.489       .  S
H16          O17   0.966       .  S
O17         Ni25   1.933       .  S
O17         Ni19   1.911       .  S
O17         Ni24   1.928       .  S
O18         Ni19   1.978       .  S
Ni19         O23   1.974       .  S
Ni19         O21   1.921       .  S
O20         Ni25   1.978       .  S
C22          O23   1.290       .  A
C22         C154   1.527       .  S
C27          C28   1.537       .  S
C27          C33   1.549       .  S
C27          C31   1.546       .  S
C27        C1036   1.544       .  S
C28          H35   1.088       .  S
C28          C29   1.371       .  D
C29         C259   1.531       .  S
C29          C30   1.582       .  S
C30          C34   1.576       .  S
C30          C32   1.516       .  S
C30          H36   1.111       .  S
C31          H37   1.085       .  S
C31          C32   1.358       .  D
C32        C1063   1.447       .  S
C33          H38   1.086       .  S
C33          C34   1.378       .  D
C34         C230   1.546       .  S
C39          C40   1.513       .  S
C39          C45   1.521       .  S
C39          C43   1.579       .  S
C39        C1060   1.515       .  S
C40          H47   1.084       .  S
C40          C41   1.355       .  D
C41         C185   1.482       .  S
C41          C42   1.555       .  S
C42          C46   1.569       .  S
C42          C44   1.524       .  S
C42          H48   1.109       .  S
C43          H49   1.086       .  S
C43          C44   1.372       .  D
C44        C1015   1.501       .  S
C45          H50   1.082       .  S
C45          C46   1.358       .  D
C46         C485   1.485       .  S
C51          C52   1.515       .  S
C51          C57   1.517       .  S
C51          C55   1.567       .  S
C51         C991   1.511       .  S
C52          H59   1.086       .  S
C52          C53   1.350       .  D
C53          C54   1.565       .  S
C54          C58   1.570       .  S
C54          C56   1.527       .  S
C54          H60   1.109       .  S
C55          H61   1.086       .  S
C55          C56   1.367       .  D
C56        C1039   1.492       .  S
C57          H62   1.084       .  S
C57          C58   1.368       .  D
C58         C400   1.498       .  S
C63          C64   1.535       .  S
C63          C69   1.530       .  S
C63          C67   1.561       .  S
C63        C1012   1.551       .  S
C64          H71   1.081       .  S
C64          C65   1.367       .  D
C65         C337   1.524       .  S
C65          C66   1.585       .  S
C66          C70   1.576       .  S
C66          C68   1.501       .  S
C66          H72   1.111       .  S
C67          H73   1.086       .  S
C67          C68   1.369       .  D
C68         C988   1.460       .  S
C69          H74   1.087       .  S
C69          C70   1.378       .  D
C70         C210   1.531       .  S
C75          C76   1.521       .  S
C75          C81   1.506       .  S
C75          C79   1.549       .  S
C75         C943   1.516       .  S
C76          H83   1.085       .  S
C76          C77   1.373       .  D
C77         C344   1.482       .  S
C77          C78   1.559       .  S
C78          C82   1.569       .  S
C78          C80   1.521       .  S
C78          H84   1.109       .  S
C79          H85   1.085       .  S
C79          C80   1.366       .  D
C80         C964   1.477       .  S
C81          H86   1.088       .  S
C81          C82   1.358       .  D
C82         C178   1.493       .  S
C87          C88   1.509       .  S
C87          C93   1.514       .  S
C87          C91   1.564       .  S
C87         C916   1.493       .  S
C88          H95   1.087       .  S
C88          C89   1.370       .  D
C89         C492   1.444       .  S
C89          C90   1.556       .  S
C90          C94   1.528       .  S
C90          C92   1.513       .  S
C90          H96   1.110       .  S
C91          H97   1.087       .  S
C91          C92   1.356       .  D
C92         C967   1.467       .  S
C93          H98   1.088       .  S
C93          C94   1.352       .  D
C94         C218   1.449       .  S
C99         C100   1.515       .  S
C99         C105   1.516       .  S
C99         C103   1.569       .  S
C99         C940   1.514       .  S
C100        H107   1.090       .  S
C100        C101   1.358       .  D
C101        C252   1.516       .  S
C101        C102   1.575       .  S
C102        C106   1.597       .  S
C102        C104   1.513       .  S
C102        H108   1.109       .  S
C103        H109   1.084       .  S
C103        C104   1.356       .  D
C104        C892   1.477       .  S
C105        H110   1.086       .  S
C105        C106   1.369       .  D
C111        C112   1.516       .  S
C111        C117   1.508       .  S
C111        C115   1.564       .  S
C111        C919   1.496       .  S
C112        H119   1.090       .  S
C112        C113   1.347       .  D
C113        C410   1.513       .  S
C113        C114   1.579       .  S
C114        C118   1.588       .  S
C114        C116   1.519       .  S
C114        H120   1.103       .  S
C115        H121   1.086       .  S
C115        C116   1.352       .  D
C116        C895   1.483       .  S
C117        H122   1.087       .  S
C117        C118   1.377       .  D
C118        C244   1.495       .  S
C123        C124   1.529       .  S
C123        C129   1.537       .  S
C123        C127   1.530       .  S
C123        C844   1.504       .  S
C124        H131   1.085       .  S
C124        C125   1.352       .  D
C125        C407   1.481       .  S
C125        C126   1.544       .  S
C126        C130   1.559       .  S
C126        C128   1.531       .  S
C126        H132   1.111       .  S
C127        H133   1.087       .  S
C127        C128   1.357       .  D
C128        C868   1.452       .  S
C129        H134   1.080       .  S
C129        C130   1.366       .  D
C130        C200   1.488       .  S
C135        C136   1.527       .  S
C135        C141   1.493       .  S
C135        C139   1.540       .  S
C135        C871   1.503       .  S
C136        H143   1.081       .  S
C136        C137   1.359       .  D
C137        C237   1.555       .  S
C137        C138   1.616       .  S
C138        C142   1.621       .  S
C138        C140   1.523       .  S
C138        H144   1.110       .  S
C139        H145   1.088       .  S
C139        C140   1.356       .  D
C140        C823   1.465       .  S
C141        H146   1.087       .  S
C141        C142   1.363       .  D
C142        C478   1.539       .  S
C147        C148   1.522       .  S
C147        C153   1.523       .  S
C147        C151   1.565       .  S
C147        C847   1.493       .  S
C148        H155   1.083       .  S
C148        C149   1.353       .  D
C149        C330   1.519       .  S
C149        C150   1.595       .  S
C150        C154   1.599       .  S
C150        C152   1.515       .  S
C150        H156   1.109       .  S
C151        H157   1.087       .  S
C151        C152   1.359       .  D
C152        C796   1.483       .  S
C153        H158   1.087       .  S
C153        C154   1.355       .  D
C159        C160   1.538       .  S
C159        C165   1.533       .  S
C159        C163   1.540       .  S
C159        C820   1.534       .  S
C160        H167   1.081       .  S
C160        C161   1.370       .  D
C161        C262   1.519       .  S
C161        C162   1.564       .  S
C162        C166   1.573       .  S
C162        C164   1.539       .  S
C162        H168   1.109       .  S
C163        H169   1.086       .  S
C163        C164   1.367       .  D
C164        C799   1.486       .  S
C165        H170   1.087       .  S
C165        C166   1.363       .  D
C166        C192   1.501       .  S
O171       Ni177   1.911       .  S
O171        C192   1.260       .  A
O172       Ni195   1.960       .  S
O172        C181   1.283       .  A
O173       Ni177   1.915       .  S
O173       Ni195   1.894       .  S
O173       Ni189   1.934       .  S
O173        H196   0.966       .  S
C174        O191   1.293       .  A
C174        O183   1.279       .  A
C174        C318   1.477       .  S
O175       Ni194   1.925       .  S
O175        C181   1.270       .  A
O176       Ni194   1.925       .  S
O176        C178   1.268       .  A
Ni177       O180   1.931       .  S
Ni177       O182   1.903       .  S
C178        O188   1.278       .  A
O179       Ni195   1.927       .  S
O179        C185   1.288       .  A
O180        C185   1.279       .  A
C181        C449   1.509       .  S
O182        C184   1.262       .  A
O183       Ni194   1.929       .  S
C184        O190   1.283       .  A
C184        C363   1.489       .  S
H186        O187   0.967       .  S
O187       Ni195   1.917       .  S
O187       Ni189   1.895       .  S
O187       Ni194   1.917       .  S
O188       Ni189   1.916       .  S
Ni189       O193   1.974       .  S
Ni189       O191   1.925       .  S
O190       Ni195   1.935       .  S
C192        O193   1.285       .  A
O197       Ni203   1.884       .  S
O197        C218   1.259       .  A
O198       Ni221   1.892       .  S
O198        C207   1.268       .  A
O199       Ni203   1.923       .  S
O199       Ni221   1.916       .  S
O199       Ni215   1.930       .  S
O199        H222   0.966       .  S
C200        O217   1.293       .  A
C200        O209   1.269       .  A
O201       Ni220   1.900       .  S
O201        C207   1.264       .  A
O202       Ni220   1.907       .  S
O202        C204   1.272       .  A
Ni203       O206   1.901       .  S
Ni203       O208   1.888       .  S
C204        O214   1.288       .  A
C204        C301   1.544       .  S
O205       Ni221   1.919       .  S
O205        C211   1.270       .  A
O206        C211   1.257       .  A
C207        C387   1.434       .  S
O208        C210   1.271       .  A
O209       Ni220   1.883       .  S
C210        O216   1.291       .  A
C211        C437   1.486       .  S
H212        O213   0.966       .  S
O213       Ni221   1.880       .  S
O213       Ni215   1.888       .  S
O213       Ni220   1.902       .  S
O214       Ni215   2.010       .  S
Ni215       O219   1.916       .  S
Ni215       O217   1.959       .  S
O216       Ni221   2.009       .  S
C218        O219   1.280       .  A
O223       Ni229   1.951       .  S
O223        C244   1.279       .  A
O224       Ni247   1.912       .  S
O224        C233   1.270       .  A
O225       Ni229   1.944       .  S
O225       Ni247   1.888       .  S
O225       Ni241   1.943       .  S
O225        H248   0.966       .  S
C226        O243   1.283       .  A
C226        O235   1.289       .  A
C226        C466   1.553       .  S
O227       Ni246   1.982       .  S
O227        C233   1.291       .  A
O228       Ni246   1.972       .  S
O228        C230   1.283       .  A
Ni229       O232   1.993       .  S
Ni229       O234   1.960       .  S
C230        O240   1.285       .  A
O231       Ni247   1.935       .  S
O231        C237   1.292       .  A
O232        C237   1.286       .  A
C233        C375   1.513       .  S
O234        C236   1.277       .  A
O235       Ni246   2.003       .  S
C236        O242   1.280       .  A
C236        C289   1.535       .  S
H238        O239   0.966       .  S
O239       Ni247   1.945       .  S
O239       Ni241   1.894       .  S
O239       Ni246   1.938       .  S
O240       Ni241   1.969       .  S
Ni241       O245   1.914       .  S
Ni241       O243   1.917       .  S
O242       Ni247   1.955       .  S
C244        O245   1.267       .  A
O249       Ni255   1.920       .  S
O249        C270   1.274       .  A
O250       Ni273   1.987       .  S
O250        C259   1.282       .  A
O251       Ni255   1.941       .  S
O251       Ni273   1.923       .  S
O251       Ni267   1.946       .  S
O251        H274   0.968       .  S
C252        O269   1.291       .  A
C252        O261   1.276       .  A
O253       Ni272   1.927       .  S
O253        C259   1.266       .  A
O254       Ni272   1.915       .  S
O254        C256   1.266       .  A
Ni255       O258   1.922       .  S
Ni255       O260   1.955       .  S
C256        O266   1.284       .  A
C256        C454   1.507       .  S
O257       Ni273   1.987       .  S
O257        C263   1.302       .  A
O258        C263   1.278       .  A
O260        C262   1.274       .  A
O261       Ni272   1.942       .  S
C262        O268   1.273       .  A
C263        C356   1.514       .  S
H264        O265   0.967       .  S
O265       Ni273   1.950       .  S
O265       Ni267   1.926       .  S
O265       Ni272   1.938       .  S
O266       Ni267   1.961       .  S
Ni267       O271   1.977       .  S
Ni267       O269   1.970       .  S
O268       Ni273   1.933       .  S
C270        O271   1.280       .  A
C270        C294   1.532       .  S
C275        C276   1.516       .  S
C275        C281   1.518   1_554  S
C275        C279   1.560       .  S
C275        C748   1.509       .  S
C276        H283   1.085       .  S
C276        C277   1.360       .  D
C277        C411   1.498       .  S
C277        C278   1.573       .  S
C278        C282   1.577   1_554  S
C278        C280   1.530       .  S
C278        H284   1.105       .  S
C279        H285   1.086       .  S
C279        C280   1.366       .  D
C280        C772   1.500       .  S
C281        H286   1.086       .  S
C281        C282   1.362       .  D
C287        C288   1.534       .  S
C287        C293   1.545   1_554  S
C287        C291   1.550       .  S
C287        C775   1.541       .  S
C288        H295   1.086       .  S
C288        C289   1.371       .  D
C289        C290   1.568       .  S
C290        C294   1.577   1_554  S
C290        C292   1.508       .  S
C290        H296   1.112       .  S
C291        H297   1.086       .  S
C291        C292   1.363       .  D
C292        C727   1.442       .  S
C293        H298   1.087       .  S
C293        C294   1.376       .  D
C299        C300   1.528       .  S
C299        C305   1.523   1_554  S
C299        C303   1.564   1_554  S
C299        C703   1.538   1_554  S
C300        H307   1.088       .  S
C300        C301   1.376       .  D
C301        C302   1.599       .  S
C302        C306   1.595   1_554  S
C302        C304   1.496       .  S
C302        H308   1.111       .  S
C303        H309   1.085       .  S
C303        C304   1.362   1_556  D
C304        C751   1.450       .  S
C305        H310   1.090       .  S
C305        C306   1.373       .  D
C306        C326   1.541       .  S
C311        C312   1.523   1_556  S
C311        C317   1.510       .  S
C311        C315   1.580       .  S
C311        C724   1.507       .  S
C312        H319   1.084       .  S
C312        C313   1.361       .  D
C313        C474   1.484       .  S
C313        C314   1.572       .  S
C314        C318   1.547   1_554  S
C314        C316   1.533   1_554  S
C314        H320   1.105       .  S
C315        H321   1.085       .  S
C315        C316   1.373       .  D
C316        C700   1.510       .  S
C317        H322   1.084       .  S
C317        C318   1.345       .  D
O323       Ni329   1.921       .  S
O323        C344   1.272       .  A
O324       Ni347   1.949       .  S
O324        C333   1.283       .  A
O325       Ni329   1.940       .  S
O325       Ni347   1.922       .  S
O325       Ni341   1.959       .  S
O325        H348   0.967       .  S
C326        O343   1.299       .  A
C326        O335   1.281       .  A
O327       Ni346   1.907       .  S
O327        C333   1.260       .  A
O328       Ni346   1.898       .  S
O328        C330   1.259       .  A
Ni329       O332   1.925       .  S
Ni329       O334   1.908       .  S
C330        O340   1.291       .  A
O331       Ni347   1.982       .  S
O331        C337   1.274       .  A
O332        C337   1.263       .  A
C333        C368   1.490       .  S
O334        C336   1.273       .  A
O335       Ni346   1.913       .  S
C336        O342   1.311       .  A
C336        C430   1.536       .  S
H338        O339   0.967       .  S
O339       Ni347   1.939       .  S
O339       Ni341   1.904       .  S
O339       Ni346   1.934       .  S
O340       Ni341   1.990       .  S
Ni341       O345   1.944       .  S
Ni341       O343   2.004       .  S
O342       Ni347   2.043       .  S
C344        O345   1.289       .  A
C349        C350   1.516       .  S
C349        C355   1.513   1_565  S
C349        C353   1.558   1_565  S
C349        C676   1.505       .  S
C350        H357   1.089       .  S
C350        C351   1.349       .  D
C351        C352   1.593       .  S
C352        C356   1.583   1_565  S
C352        C354   1.516   1_565  S
C352        H358   1.108       .  S
C353        H359   1.086       .  S
C353        C354   1.359       .  D
C354        C652   1.473       .  S
C355        H360   1.087       .  S
C355        C356   1.377       .  D
C361        C362   1.505       .  S
C361        C367   1.518   1_545  S
C361        C365   1.572       .  S
C361        C679   1.502   1_545  S
C362        H369   1.086       .  S
C362        C363   1.367       .  D
C363        C364   1.580       .  S
C364        C368   1.558   1_545  S
C364        C366   1.511       .  S
C364        H370   1.108       .  S
C365        H371   1.086       .  S
C365        C366   1.362       .  D
C366        C628   1.482       .  S
C367        H372   1.089       .  S
C367        C368   1.354       .  D
C373        C374   1.509   1_565  S
C373        C379   1.519       .  S
C373        C377   1.588       .  S
C373        C604   1.506       .  S
C374        H381   1.086       .  S
C374        C375   1.373       .  D
C375        C376   1.587   1_545  S
C376        C380   1.582       .  S
C376        C378   1.501       .  S
C376        H382   1.108       .  S
C377        H383   1.083       .  S
C377        C378   1.359       .  D
C378        C655   1.472       .  S
C379        H384   1.089       .  S
C379        C380   1.346       .  D
C380        C404   1.526       .  S
C385        C386   1.517   1_545  S
C385        C391   1.516       .  S
C385        C389   1.556       .  S
C385        C607   1.493       .  S
C386        H393   1.088       .  S
C386        C387   1.351       .  D
C387        C388   1.524   1_565  S
C388        C392   1.548       .  S
C388        C390   1.524       .  S
C388        H394   1.111       .  S
C389        H395   1.087       .  S
C389        C390   1.355       .  D
C390        C631   1.474       .  S
C391        H396   1.087       .  S
C391        C392   1.374       .  D
C392        C481   1.441       .  S
O397       Ni403   1.942       .  S
O397        C418   1.275       .  A
O398       Ni421   1.938       .  S
O398        C407   1.276       .  A
O399       Ni403   1.919       .  S
O399       Ni421   1.883       .  S
O399       Ni415   1.931       .  S
O399        H422   0.966       .  S
C400        O417   1.281       .  A
C400        O409   1.284       .  A
O401       Ni420   1.920       .  S
O401        C407   1.267       .  A
O402       Ni420   1.931       .  S
O402        C404   1.266       .  A
Ni403       O406   1.951       .  S
Ni403       O408   1.933       .  S
C404        O414   1.293       .  A
O405       Ni421   1.928       .  S
O405        C411   1.290       .  A
O406        C411   1.283       .  A
O408        C410   1.268       .  A
O409       Ni420   1.957       .  S
C410        O416   1.285       .  A
H412        O413   0.966       .  S
O413       Ni421   1.945       .  S
O413       Ni415   1.877       .  S
O413       Ni420   1.914       .  S
O414       Ni415   1.973       .  S
Ni415       O419   1.917       .  S
Ni415       O417   1.914       .  S
O416       Ni421   1.947       .  S
C418        O419   1.276       .  A
C418        C442   1.481       .  S
C423        C424   1.530   1_455  S
C423        C429   1.524       .  S
C423        C427   1.547       .  S
C423        C580   1.499       .  S
C424        H431   1.088       .  S
C424        C425   1.349       .  D
C425        C426   1.604   1_655  S
C426        C430   1.614       .  S
C426        C428   1.519       .  S
C426        H432   1.109       .  S
C427        H433   1.087       .  S
C427        C428   1.357       .  D
C428        C559   1.472       .  S
C429        H434   1.081       .  S
C429        C430   1.358       .  D
C435        C436   1.522       .  S
C435        C441   1.516   1_455  S
C435        C439   1.545       .  S
C435        C583   1.502   1_455  S
C436        H443   1.081       .  S
C436        C437   1.363       .  D
C437        C438   1.563       .  S
C438        C442   1.548   1_455  S
C438        C440   1.529       .  S
C438        H444   1.109       .  S
C439        H445   1.086       .  S
C439        C440   1.366       .  D
C440        C532   1.469       .  S
C441        H446   1.084       .  S
C441        C442   1.347       .  D
C447        C448   1.538       .  S
C447        C453   1.534   1_455  S
C447        C451   1.544       .  S
C447        C508   1.524       .  S
C448        H455   1.087       .  S
C448        C449   1.368       .  D
C449        C450   1.574       .  S
C450        C454   1.568   1_455  S
C450        C452   1.521       .  S
C450        H456   1.109       .  S
C451        H457   1.087       .  S
C451        C452   1.359       .  D
C452        C556   1.473       .  S
C453        H458   1.083       .  S
C453        C454   1.364       .  D
C459        C460   1.504       .  S
C459        C465   1.510   1_455  S
C459        C463   1.551       .  S
C459        C535   1.513   1_455  S
C460        H467   1.084       .  S
C460        C461   1.370       .  D
C461        C484   1.546       .  S
C461        C462   1.621       .  S
C462        C466   1.616   1_455  S
C462        C464   1.517       .  S
C462        H468   1.110       .  S
C463        H469   1.086       .  S
C463        C464   1.353       .  D
C464        C511   1.465       .  S
C465        H470   1.090       .  S
C465        C466   1.363       .  D
O471       Ni477   1.905       .  S
O471        C492   1.267       .  A
O472       Ni495   1.853       .  S
O472        C481   1.275       .  A
O473       Ni477   1.862       .  S
O473       Ni495   1.846       .  S
O473       Ni489   1.915       .  S
O473        H496   0.966       .  S
C474        O491   1.288       .  A
C474        O483   1.268       .  A
O475       Ni494   1.903       .  S
O475        C481   1.267       .  A
O476       Ni494   1.931       .  S
O476        C478   1.276       .  A
Ni477       O480   1.903       .  S
Ni477       O482   1.936       .  S
C478        O488   1.288       .  A
O479       Ni495   1.953       .  S
O479        C485   1.292       .  A
O480        C485   1.274       .  A
O482        C484   1.271       .  A
O483       Ni494   1.891       .  S
C484        O490   1.287       .  A
H486        O487   0.966       .  S
O487       Ni495   1.921       .  S
O487       Ni489   1.861       .  S
O487       Ni494   1.868       .  S
O488       Ni489   2.010       .  S
Ni489       O493   1.863       .  S
Ni489       O491   1.956       .  S
O490       Ni495   2.018       .  S
C492        O493   1.281       .  A
C497        C498   1.398       .  A
C497        C502   1.398       .  A
C497        H513   1.082       .  S
C498        C499   1.400   1_554  A
C498        H514   1.081   1_554  S
C499        C509   1.399       .  A
C499        C500   1.407   1_556  A
C500        C506   1.407   1_454  A
C500        C501   1.411       .  A
C501        C503   1.412   1_455  A
C501        C502   1.411       .  A
C502        C510   1.399       .  A
C503        C512   1.402       .  A
C503        C504   1.401       .  A
C504        C505   1.399       .  A
C504        H515   1.083       .  S
C505        C506   1.403   1_554  A
C505        H516   1.077       .  S
C506        C507   1.402       .  A
C507        C508   1.414   1_655  A
C507        H517   1.079       .  S
C508        C509   1.410       .  A
C509        H518   1.083       .  S
C510        C511   1.398       .  A
C510        H519   1.085       .  S
C511        C512   1.403   1_455  A
C512        H520   1.085       .  S
C521        C522   1.395       .  A
C521        C526   1.400       .  A
C521        H537   1.082       .  S
C522        C523   1.403       .  A
C522        H538   1.084       .  S
C523        C533   1.391       .  A
C523        C524   1.408   1_455  A
C524        C530   1.413       .  A
C524        C525   1.402       .  A
C525        C527   1.405       .  A
C525        C526   1.412   1_655  A
C526        C534   1.400       .  A
C527        C536   1.387       .  A
C527        C528   1.401       .  A
C528        C529   1.395       .  A
C528        H539   1.084       .  S
C529        C530   1.402       .  A
C529        H540   1.084       .  S
C530        C531   1.397       .  A
C531        C532   1.404   1_655  A
C531        H541   1.084       .  S
C532        C533   1.402       .  A
C533        H542   1.080       .  S
C534        C535   1.406   1_455  A
C534        H543   1.083       .  S
C535        C536   1.409       .  A
C536        H544   1.083       .  S
C545        C546   1.397       .  A
C545        C550   1.403       .  A
C545        H561   1.084       .  S
C546        C547   1.403       .  A
C546        H562   1.084       .  S
C547        C557   1.399       .  A
C547        C548   1.412       .  A
C548        C554   1.409   1_455  A
C548        C549   1.406       .  A
C549        C551   1.412   1_455  A
C549        C550   1.410       .  A
C550        C558   1.397       .  A
C551        C560   1.396       .  A
C551        C552   1.401       .  A
C552        C553   1.394       .  A
C552        H563   1.084       .  S
C553        C554   1.401       .  A
C553        H564   1.077       .  S
C554        C555   1.396       .  A
C555        C556   1.404   1_655  A
C555        H565   1.084       .  S
C556        C557   1.403       .  A
C557        H566   1.083       .  S
C558        C559   1.403       .  A
C558        H567   1.082       .  S
C559        C560   1.404   1_455  A
C560        H568   1.084       .  S
C569        C570   1.381   1_554  A
C569        C574   1.394       .  A
C569        H585   1.083       .  S
C570        C571   1.393       .  A
C570        H586   1.081       .  S
C571        C581   1.371       .  A
C571        C572   1.406       .  A
C572        C578   1.410   1_655  A
C572        C573   1.397   1_556  A
C573        C575   1.410   1_655  A
C573        C574   1.407       .  A
C574        C582   1.372       .  A
C575        C584   1.402       .  A
C575        C576   1.402       .  A
C576        C577   1.400   1_554  A
C576        H587   1.078       .  S
C577        C578   1.404       .  A
C577        H588   1.084       .  S
C578        C579   1.400       .  A
C579        C580   1.408       .  A
C579        H589   1.076       .  S
C580        C581   1.399   1_455  A
C581        H590   1.086       .  S
C582        C583   1.401       .  A
C582        H591   1.085       .  S
C583        C584   1.410   1_655  A
C584        H592   1.079       .  S
C593        C594   1.414   1_455  A
C593        C598   1.409       .  A
C593        H609   1.081       .  S
C594        C595   1.405       .  A
C594        H610   1.079       .  S
C595        C605   1.421       .  A
C595        C596   1.405   1_545  A
C596        C602   1.395       .  A
C596        C597   1.387   1_565  A
C597        C599   1.400   1_645  A
C597        C598   1.404   1_655  A
C598        C606   1.411       .  A
C599        C608   1.357       .  A
C599        C600   1.388   1_455  A
C600        C601   1.376       .  A
C600        H611   1.075   1_655  S
C601        C602   1.395       .  A
C601        H612   1.084       .  S
C602        C603   1.365       .  A
C603        C604   1.394       .  A
C603        H613   1.086       .  S
C604        C605   1.420   1_565  A
C605        H614   1.083       .  S
C606        C607   1.415       .  A
C606        H615   1.078       .  S
C607        C608   1.394   1_545  A
C608        H616   1.087       .  S
C617        C618   1.391       .  A
C617        C622   1.399       .  A
C617        H633   1.080       .  S
C618        C619   1.401       .  A
C618        H634   1.084       .  S
C619        C629   1.392       .  A
C619        C620   1.410       .  A
C620        C626   1.411   1_565  A
C620        C621   1.407   1_565  A
C621        C623   1.412       .  A
C621        C622   1.410   1_545  A
C622        C630   1.392       .  A
C623        C632   1.405       .  A
C623        C624   1.405       .  A
C624        C625   1.401       .  A
C624        H635   1.083       .  S
C625        C626   1.405       .  A
C625        H636   1.083       .  S
C626        C627   1.404       .  A
C627        C628   1.408       .  A
C627        H637   1.082       .  S
C628        C629   1.404   1_545  A
C629        H638   1.083       .  S
C630        C631   1.402   1_565  A
C630        H639   1.085       .  S
C631        C632   1.402       .  A
C632        H640   1.080       .  S
C641        C642   1.397       .  A
C641        C646   1.401       .  A
C641        H657   1.080       .  S
C642        C643   1.403       .  A
C642        H658   1.084       .  S
C643        C653   1.396       .  A
C643        C644   1.409       .  A
C644        C650   1.411   1_545  A
C644        C645   1.403       .  A
C645        C647   1.407   1_545  A
C645        C646   1.412       .  A
C646        C654   1.401       .  A
C647        C656   1.388       .  A
C647        C648   1.401       .  A
C648        C649   1.391       .  A
C648        H659   1.084       .  S
C649        C650   1.401       .  A
C649        H660   1.084       .  S
C650        C651   1.391       .  A
C651        C652   1.402   1_565  A
C651        H661   1.082       .  S
C652        C653   1.408       .  A
C653        H662   1.083       .  S
C654        C655   1.404   1_545  A
C654        H663   1.084       .  S
C655        C656   1.404       .  A
C656        H664   1.083       .  S
C665        C666   1.413   1_455  A
C665        C670   1.409       .  A
C665        H681   1.083       .  S
C666        C667   1.408       .  A
C666        H682   1.081       .  S
C667        C677   1.418       .  A
C667        C668   1.409   1_545  A
C668        C674   1.401       .  A
C668        C669   1.395   1_655  A
C669        C671   1.405       .  A
C669        C670   1.409   1_565  A
C670        C678   1.417       .  A
C671        C680   1.362       .  A
C671        C672   1.392       .  A
C672        C673   1.372   1_455  A
C672        H683   1.084       .  S
C673        C674   1.391       .  A
C673        H684   1.079       .  S
C674        C675   1.360       .  A
C675        C676   1.397       .  A
C675        H685   1.087       .  S
C676        C677   1.415   1_565  A
C677        H686   1.082       .  S
C678        C679   1.418   1_545  A
C678        H687   1.082       .  S
C679        C680   1.392       .  A
C680        H688   1.087       .  S
C689        C690   1.392       .  A
C689        C694   1.398       .  A
C689        H705   1.082       .  S
C690        C691   1.402       .  A
C690        H706   1.080       .  S
C691        C701   1.392       .  A
C691        C692   1.402   1_554  A
C692        C698   1.414       .  A
C692        C693   1.415       .  A
C693        C695   1.405   1_545  A
C693        C694   1.413   1_556  A
C694        C702   1.400   1_545  A
C695        C704   1.411       .  A
C695        C696   1.409   1_565  A
C696        C697   1.408       .  A
C696        H707   1.084   1_545  S
C697        C698   1.407       .  A
C697        H708   1.083       .  S
C698        C699   1.421       .  A
C699        C700   1.416       .  A
C699        H709   1.083       .  S
C700        C701   1.406   1_556  A
C701        H710   1.069       .  S
C702        C703   1.403   1_554  A
C702        H711   1.079       .  S
C703        C704   1.422       .  A
C704        H712   1.082       .  S
C713        C714   1.397       .  A
C713        C718   1.403       .  A
C713        H729   1.083       .  S
C714        C715   1.402       .  A
C714        H730   1.084       .  S
C715        C725   1.398       .  A
C715        C716   1.412   1_554  A
C716        C722   1.407       .  A
C716        C717   1.395       .  A
C717        C719   1.413       .  A
C717        C718   1.409   1_556  A
C718        C726   1.390       .  A
C719        C728   1.385       .  A
C719        C720   1.396       .  A
C720        C721   1.387       .  A
C720        H731   1.081       .  S
C721        C722   1.398       .  A
C721        H732   1.080       .  S
C722        C723   1.381       .  A
C723        C724   1.404       .  A
C723        H733   1.084       .  S
C724        C725   1.406   1_556  A
C725        H734   1.081       .  S
C726        C727   1.400       .  A
C726        H735   1.082       .  S
C727        C728   1.391   1_554  A
C728        H736   1.084       .  S
C737        C738   1.390       .  A
C737        C742   1.395       .  A
C737        H753   1.071       .  S
C738        C739   1.399       .  A
C738        H754   1.079       .  S
C739        C749   1.391       .  A
C739        C740   1.406       .  A
C740        C746   1.405   1_554  A
C740        C741   1.400       .  A
C741        C743   1.408   1_554  A
C741        C742   1.404       .  A
C742        C750   1.387       .  A
C743        C752   1.398       .  A
C743        C744   1.398       .  A
C744        C745   1.395       .  A
C744        H755   1.071       .  S
C745        C746   1.401       .  A
C745        H756   1.083       .  S
C746        C747   1.392       .  A
C747        C748   1.411   1_556  A
C747        H757   1.081       .  S
C748        C749   1.411       .  A
C749        H758   1.081       .  S
C750        C751   1.396       .  A
C750        H759   1.079       .  S
C751        C752   1.400   1_554  A
C752        H760   1.083       .  S
C761        C762   1.400       .  A
C761        C766   1.404   1_565  A
C761        H777   1.082       .  S
C762        C763   1.402       .  A
C762        H778   1.084       .  S
C763        C773   1.408       .  A
C763        C764   1.413       .  A
C764        C770   1.407   1_554  A
C764        C765   1.417       .  A
C765        C767   1.412   1_564  A
C765        C766   1.406   1_565  A
C766        C774   1.403       .  A
C767        C776   1.412       .  A
C767        C768   1.403   1_545  A
C768        C769   1.400       .  A
C768        H779   1.081       .  S
C769        C770   1.405       .  A
C769        H780   1.080       .  S
C770        C771   1.406       .  A
C771        C772   1.406   1_556  A
C771        H781   1.073       .  S
C772        C773   1.409       .  A
C773        H782   1.083       .  S
C774        C775   1.415       .  A
C774        H783   1.082       .  S
C775        C776   1.413   1_554  A
C776        H784   1.083       .  S
C785        C786   1.400   1_545  A
C785        C790   1.404       .  A
C785        H801   1.082       .  S
C786        C787   1.404       .  A
C786        H802   1.084       .  S
C787        C797   1.406       .  A
C787        C788   1.413       .  A
C788        C794   1.409       .  A
C788        C789   1.410   1_565  A
C789        C791   1.412       .  A
C789        C790   1.410       .  A
C790        C798   1.403       .  A
C791        C800   1.400       .  A
C791        C792   1.403       .  A
C792        C793   1.396   1_545  A
C792        H803   1.084       .  S
C793        C794   1.403       .  A
C793        H804   1.084       .  S
C794        C795   1.396       .  A
C795        C796   1.404       .  A
C795        H805   1.081       .  S
C796        C797   1.408       .  A
C797        H806   1.084       .  S
C798        C799   1.409       .  A
C798        H807   1.084       .  S
C799        C800   1.406       .  A
C800        H808   1.083       .  S
C809        C810   1.398       .  A
C809        C814   1.402       .  A
C809        H825   1.083       .  S
C810        C811   1.402       .  A
C810        H826   1.078       .  S
C811        C821   1.404       .  A
C811        C812   1.409       .  A
C812        C818   1.407       .  A
C812        C813   1.411       .  A
C813        C815   1.413       .  A
C813        C814   1.413       .  A
C814        C822   1.399       .  A
C815        C824   1.402       .  A
C815        C816   1.404       .  A
C816        C817   1.400       .  A
C816        H827   1.084       .  S
C817        C818   1.405       .  A
C817        H828   1.083       .  S
C818        C819   1.402       .  A
C819        C820   1.415       .  A
C819        H829   1.084       .  S
C820        C821   1.412       .  A
C821        H830   1.078       .  S
C822        C823   1.400       .  A
C822        H831   1.085       .  S
C823        C824   1.403       .  A
C824        H832   1.085       .  S
C833        C834   1.393       .  A
C833        C838   1.398       .  A
C833        H849   1.077       .  S
C834        C835   1.401       .  A
C834        H850   1.083       .  S
C835        C845   1.395       .  A
C835        C836   1.412       .  A
C836        C842   1.402       .  A
C836        C837   1.396       .  A
C837        C839   1.409       .  A
C837        C838   1.404       .  A
C838        C846   1.387       .  A
C839        C848   1.386       .  A
C839        C840   1.399       .  A
C840        C841   1.389       .  A
C840        H851   1.084       .  S
C841        C842   1.399       .  A
C841        H852   1.078       .  S
C842        C843   1.382       .  A
C843        C844   1.409       .  A
C843        H853   1.084       .  S
C844        C845   1.405       .  A
C845        H854   1.078       .  S
C846        C847   1.405       .  A
C846        H855   1.076       .  S
C847        C848   1.407       .  A
C848        H856   1.084       .  S
C857        C858   1.389       .  A
C857        C862   1.399   1_565  A
C857        H873   1.082   1_565  S
C858        C859   1.399       .  A
C858        H874   1.083       .  S
C859        C869   1.383       .  A
C859        C860   1.408       .  A
C860        C866   1.412       .  A
C860        C861   1.396   1_565  A
C861        C863   1.405       .  A
C861        C862   1.409       .  A
C862        C870   1.387       .  A
C863        C872   1.389       .  A
C863        C864   1.399       .  A
C864        C865   1.394   1_545  A
C864        H875   1.076       .  S
C865        C866   1.401       .  A
C865        H876   1.084       .  S
C866        C867   1.393       .  A
C867        C868   1.402       .  A
C867        H877   1.085       .  S
C868        C869   1.395       .  A
C869        H878   1.079       .  S
C870        C871   1.405       .  A
C870        H879   1.075       .  S
C871        C872   1.408       .  A
C872        H880   1.085       .  S
C881        C882   1.395   1_554  A
C881        C886   1.401       .  A
C881        H897   1.083       .  S
C882        C883   1.400       .  A
C882        H898   1.084       .  S
C883        C893   1.394       .  A
C883        C884   1.410       .  A
C884        C890   1.409       .  A
C884        C885   1.404   1_556  A
C885        C887   1.408       .  A
C885        C886   1.408       .  A
C886        C894   1.396       .  A
C887        C896   1.395       .  A
C887        C888   1.402       .  A
C888        C889   1.396   1_554  A
C888        H899   1.084       .  S
C889        C890   1.404       .  A
C889        H900   1.081       .  S
C890        C891   1.398       .  A
C891        C892   1.407       .  A
C891        H901   1.081       .  S
C892        C893   1.403       .  A
C893        H902   1.083       .  S
C894        C895   1.408       .  A
C894        H903   1.083       .  S
C895        C896   1.406       .  A
C896        H904   1.081       .  S
C905        C906   1.412       .  A
C905        C910   1.405       .  A
C905        H921   1.078       .  S
C906        C907   1.407       .  A
C906        H922   1.082       .  S
C907        C917   1.412       .  A
C907        C908   1.407       .  A
C908        C914   1.402       .  A
C908        C909   1.388       .  A
C909        C911   1.395       .  A
C909        C910   1.406       .  A
C910        C918   1.418       .  A
C911        C920   1.354       .  A
C911        C912   1.391       .  A
C912        C913   1.374       .  A
C912        H923   1.082       .  S
C913        C914   1.396       .  A
C913        H924   1.084       .  S
C914        C915   1.357       .  A
C915        C916   1.392       .  A
C915        H925   1.087       .  S
C916        C917   1.415       .  A
C917        H926   1.082       .  S
C918        C919   1.414       .  A
C918        H927   1.082       .  S
C919        C920   1.398       .  A
C920        H928   1.087       .  S
C929        C930   1.410       .  A
C929        C934   1.408       .  A
C929        H945   1.077       .  S
C930        C931   1.401       .  A
C930        H946   1.083       .  S
C931        C941   1.414       .  A
C931        C932   1.407       .  A
C932        C938   1.401       .  A
C932        C933   1.396       .  A
C933        C935   1.401       .  A
C933        C934   1.404       .  A
C934        C942   1.414       .  A
C935        C944   1.378       .  A
C935        C936   1.397       .  A
C936        C937   1.385       .  A
C936        H947   1.075       .  S
C937        C938   1.396       .  A
C937        H948   1.084       .  S
C938        C939   1.379       .  A
C939        C940   1.402       .  A
C939        H949   1.085       .  S
C940        C941   1.414       .  A
C941        H950   1.083       .  S
C942        C943   1.414       .  A
C942        H951   1.080       .  S
C943        C944   1.406       .  A
C944        H952   1.084       .  S
C953        C954   1.401   1_554  A
C953        C958   1.404       .  A
C953        H969   1.084       .  S
C954        C955   1.405       .  A
C954        H970   1.083       .  S
C955        C965   1.406       .  A
C955        C956   1.412       .  A
C956        C962   1.408       .  A
C956        C957   1.403   1_556  A
C957        C959   1.411       .  A
C957        C958   1.411       .  A
C958        C966   1.401       .  A
C959        C968   1.386       .  A
C959        C960   1.397       .  A
C960        C961   1.387   1_554  A
C960        H971   1.083       .  S
C961        C962   1.398       .  A
C961        H972   1.080       .  S
C962        C963   1.385       .  A
C963        C964   1.401       .  A
C963        H973   1.083       .  S
C964        C965   1.410       .  A
C965        H974   1.083       .  S
C966        C967   1.406       .  A
C966        H975   1.083       .  S
C967        C968   1.399       .  A
C968        H976   1.084       .  S
C977        C978   1.398   1_655  A
C977        C982   1.395       .  A
C977        H993   1.074       .  S
C978        C979   1.403       .  A
C978        H994   1.074       .  S
C979        C989   1.400       .  A
C979        C980   1.405       .  A
C980        C986   1.406       .  A
C980        C981   1.401   1_455  A
C981        C983   1.403       .  A
C981        C982   1.404       .  A
C982        C990   1.398       .  A
C983        C992   1.387       .  A
C983        C984   1.396       .  A
C984        C985   1.389   1_655  A
C984        H995   1.078       .  S
C985        C986   1.392       .  A
C985        H996   1.069       .  S
C986        C987   1.390       .  A
C987        C988   1.393       .  A
C987        H997   1.081       .  S
C988        C989   1.406       .  A
C989        H998   1.079       .  S
C990        C991   1.408       .  A
C990        H999   1.081       .  S
C991        C992   1.409       .  A
C992       H1000   1.081       .  S
C1001      C1002   1.406       .  A
C1001      C1006   1.406       .  A
C1001      H1017   1.082       .  S
C1002      C1003   1.404       .  A
C1002      H1018   1.082       .  S
C1003      C1013   1.414       .  A
C1003      C1004   1.409       .  A
C1004      C1010   1.407       .  A
C1004      C1005   1.421       .  A
C1005      C1007   1.410       .  A
C1005      C1006   1.410       .  A
C1006      C1014   1.416       .  A
C1007      C1016   1.408       .  A
C1007      C1008   1.401       .  A
C1008      C1009   1.400       .  A
C1008      H1019   1.079       .  S
C1009      C1010   1.404       .  A
C1009      H1020   1.082       .  S
C1010      C1011   1.406       .  A
C1011      C1012   1.415       .  A
C1011      H1021   1.070       .  S
C1012      C1013   1.417       .  A
C1013      H1022   1.084       .  S
C1014      C1015   1.411       .  A
C1014      H1023   1.081       .  S
C1015      C1016   1.407       .  A
C1016      H1024   1.084       .  S
C1025      C1026   1.395       .  A
C1025      C1030   1.402       .  A
C1025      H1041   1.082       .  S
C1026      C1027   1.399       .  A
C1026      H1042   1.075       .  S
C1027      C1037   1.407       .  A
C1027      C1028   1.410       .  A
C1028      C1034   1.406       .  A
C1028      C1029   1.416       .  A
C1029      C1031   1.413       .  A
C1029      C1030   1.408       .  A
C1030      C1038   1.399       .  A
C1031      C1040   1.415       .  A
C1031      C1032   1.406       .  A
C1032      C1033   1.405       .  A
C1032      H1043   1.084       .  S
C1033      C1034   1.407       .  A
C1033      H1044   1.084       .  S
C1034      C1035   1.409       .  A
C1035      C1036   1.420       .  A
C1035      H1045   1.082       .  S
C1036      C1037   1.409       .  A
C1037      H1046   1.082       .  S
C1038      C1039   1.403       .  A
C1038      H1047   1.081       .  S
C1039      C1040   1.411       .  A
C1040      H1048   1.084       .  S
C1049      C1050   1.394   1_655  A
C1049      C1054   1.403       .  A
C1049      H1065   1.079       .  S
C1050      C1051   1.400       .  A
C1050      H1066   1.084       .  S
C1051      C1061   1.393       .  A
C1051      C1052   1.409       .  A
C1052      C1058   1.409       .  A
C1052      C1053   1.396   1_455  A
C1053      C1055   1.410       .  A
C1053      C1054   1.409       .  A
C1054      C1062   1.393       .  A
C1055      C1064   1.389       .  A
C1055      C1056   1.399       .  A
C1056      C1057   1.391   1_655  A
C1056      H1067   1.078       .  S
C1057      C1058   1.400       .  A
C1057      H1068   1.083       .  S
C1058      C1059   1.389       .  A
C1059      C1060   1.406       .  A
C1059      H1069   1.083       .  S
C1060      C1061   1.408       .  A
C1061      H1070   1.080       .  S
C1062      C1063   1.397       .  A
C1062      H1071   1.081       .  S
C1063      C1064   1.395       .  A
C1064      H1072   1.082       .  S
