geometry optimzed in LAMMPS
_audit_creation_date              2020-12-01 
_audit_creation_method            'lammps2cif' 
_symmetry_space_group_name_H-M    'P1' 
_symmetry_Int_Tables_number       1 
_symmetry_cell_setting            triclinic 
loop_ 
_symmetry_equiv_pos_as_xyz 
  x,y,z 
_cell_length_a                    41.70611008 
_cell_length_b                    38.80154963057628 
_cell_length_c                    68.45745718965235 
_cell_angle_alpha                 89.68862445243084 
_cell_angle_beta                  90.38857115031178 
_cell_angle_gamma                 89.99197520483835 
loop_ 
_atom_site_label 
_atom_site_type_symbol 
_atom_site_fract_x 
_atom_site_fract_y 
_atom_site_fract_z 
_atom_site_charge 
N1          N  0.03683038  0.00505787  0.49529324    -0.37000
N2          N  0.49199023  0.02472609  0.52494268    -0.57600
N3          N  0.44152485  0.50461679  0.49809396    -0.37000
N4          N  0.48675393  0.48567888  0.46760595    -0.57600
C5          C  0.05651100  0.02329995  0.50715756     0.26500
C6          C  0.05330985  0.49876473  0.47873837     0.26500
C7          C  0.42642154  0.00447196  0.51557422     0.26500
C8          C  0.42307494  0.48602055  0.48568033     0.26500
C9          C  0.01858595  0.03606941  0.53413298     0.35200
C10         C  0.46682821  0.03430717  0.53589686     0.35200
C11         C  0.01144876  0.46656180  0.46101114     0.35200
C12         C  0.45969589  0.47153739  0.46028979     0.35200
C13         C  0.08550310  0.02909235  0.49784932    -0.22300
C14         C  0.08341055  0.51378139  0.47988465    -0.22300
C15         C  0.39888395  0.98464215  0.51444447    -0.22300
C16         C  0.39726557  0.47212387  0.49570911    -0.22300
C17         C  0.01033712  0.05276393  0.55124914    -0.23400
C18         C  0.47733976  0.05211599  0.55220698    -0.23400
C19         C  0.00013772  0.43934670  0.44995614    -0.23400
C20         C  0.46714981  0.44196252  0.44995557    -0.23400
C21         C  0.04986150  0.03369633  0.52650043    -0.18700
C22         C  0.04392361  0.47494885  0.46427965    -0.18700
C23         C  0.42854771  0.48248001  0.46536717    -0.18700
C24         C  0.43488597  0.02486992  0.53182064    -0.18700
H25         H  0.10633084  0.04242857  0.50352483     0.14200
H26         H  0.10241429  0.51250028  0.46921966     0.14200
H27         H  0.38163431  0.97999178  0.52590232     0.14200
H28         H  0.37864635  0.45552585  0.48996852     0.14200
H29         H  0.02631764  0.06502982  0.56161395     0.12500
H30         H  0.46284706  0.06280901  0.56374500     0.12500
H31         H  0.01413778  0.41946697  0.44298298     0.12500
H32         H  0.45054441  0.42379424  0.44349467     0.12500
H33         H  0.01540552  0.99321208  0.49917379     0.25700
H34         H  0.46074361  0.52028778  0.49412135     0.25700
N35         N  0.44581140  0.24383942  0.49952070    -0.37000
N36         N  0.99481490  0.24446058  0.46929241    -0.57600
N37         N  0.04296626  0.24195741  0.50029631    -0.37000
N38         N  0.99396951  0.23809954  0.53003587    -0.61600
C39         C  0.42750389  0.24095261  0.48325717     0.26500
C40         C  0.42712743  0.23553955  0.51492399     0.26500
C41         C  0.06156335  0.23814834  0.48432422     0.26500
C42         C  0.06082378  0.23278525  0.51609927     0.26500
C43         C  0.46910828  0.25332780  0.45823132     0.35200
C44         C  0.02098337  0.25211772  0.45856327     0.35200
C45         C  0.46791623  0.24254116  0.54131992     0.35200
C46         C  0.01977588  0.24226166  0.54176824     0.35200
C47         C  0.39672020  0.23104451  0.48837226    -0.22300
C48         C  0.39657152  0.22723861  0.50832180    -0.22300
C49         C  0.09168924  0.22660878  0.49006114    -0.22300
C50         C  0.09106346  0.22270204  0.51002569    -0.22300
C51         C  0.47891609  0.26525129  0.44011599    -0.23400
C52         C  0.01182125  0.26436821  0.44029674    -0.23400
C53         C  0.47711924  0.24925417  0.56039961    -0.23400
C54         C  0.01008156  0.24937107  0.56065734    -0.23400
C55         C  0.43684840  0.25081119  0.46424047    -0.18700
C56         C  0.43604977  0.23795597  0.53485754    -0.18700
C57         C  0.05175045  0.23664411  0.53593934    -0.18700
C58         C  0.05306740  0.24821909  0.46503808    -0.18700
H59         H  0.37626194  0.22751694  0.47879174     0.14200
H60         H  0.37596366  0.22021772  0.51700743     0.14200
H61         H  0.11227630  0.22198506  0.48092206     0.14200
H62         H  0.11106102  0.21457468  0.51909751     0.14200
H63         H  0.46393721  0.27401887  0.42810897     0.12500
H64         H  0.02723116  0.27235702  0.42844951     0.12500
H65         H  0.46169401  0.25326512  0.57283304     0.12500
H66         H  0.02516991  0.25332325  0.57337284     0.12500
H67         H  0.46810131  0.25542615  0.50019140     0.25700
H68         H  0.02127157  0.25483997  0.50057787     0.25700
N69         N  0.28331085  0.30432721  0.40505518    -0.06600
N70         N  0.31016743  0.28631017  0.40616927    -0.58700
N71         N  0.20880927  0.32177392  0.42163008    -0.06200
N72         N  0.18402841  0.31730234  0.43324458    -0.60800
N73         N  0.20873032  0.29844762  0.40780706    -0.05800
N74         N  0.18358726  0.27790209  0.40960347    -0.58700
N75         N  0.28239035  0.32721451  0.41909755    -0.05500
N76         N  0.30824082  0.32495069  0.43016415    -0.61200
C77         C  0.32559759  0.29952439  0.42193215     0.95600
C78         C  0.16839306  0.28983853  0.42562366     0.95400
N79         N  0.20130844  0.42670305  0.40900133    -0.06700
N80         N  0.17502212  0.44483424  0.41215790    -0.59300
N81         N  0.27780386  0.40745359  0.41955047    -0.04900
N82         N  0.30336846  0.41285485  0.43057350    -0.60500
N83         N  0.27535042  0.43143532  0.40596139    -0.06800
N84         N  0.29926935  0.45362086  0.40739611    -0.59500
N85         N  0.20405509  0.40200033  0.42207574    -0.04500
N86         N  0.17964339  0.40267263  0.43416641    -0.60600
Mn87       Mn  0.24332977  0.36459585  0.42133025     1.18400
C88         C  0.16155434  0.42956826  0.42796593     0.97700
C89         C  0.31659146  0.44149407  0.42271559     0.98400
N90         N  0.20437079  0.29964734  0.36277394    -0.06800
N91         N  0.18519803  0.27336488  0.35954930    -0.63100
N92         N  0.27373340  0.32849851  0.34562817    -0.05600
N93         N  0.29109551  0.32112978  0.33015393    -0.63800
N94         N  0.27666622  0.30395588  0.35885634    -0.06300
N95         N  0.29567899  0.27937293  0.35238216    -0.63400
N96         N  0.20104315  0.32318870  0.34902320    -0.05200
N97         N  0.17980842  0.31274496  0.33593559    -0.64100
Mn98       Mn  0.24360307  0.30064223  0.38377321     1.10700
C99         C  0.16984091  0.28171457  0.34280214     0.98900
C100        C  0.30470846  0.29032047  0.33441256     0.99000
N101        N  0.26865971  0.43425471  0.35968836    -0.06300
N102        N  0.28378067  0.46206630  0.35345337    -0.61700
N103        N  0.19657534  0.40641812  0.34896549    -0.05600
N104        N  0.17773481  0.41721333  0.33457607    -0.58400
N105        N  0.19666765  0.42917861  0.36316609    -0.06900
N106        N  0.17757815  0.45520015  0.35880728    -0.61200
N107        N  0.26853181  0.41052489  0.34600323    -0.05900
N108        N  0.28366235  0.42181261  0.33035424    -0.58400
Mn109      Mn  0.23558019  0.43117859  0.38469301     1.20200
Mn110      Mn  0.23487689  0.36700329  0.34707298     1.10100
Cl111      Cl  0.23944756  0.36589892  0.38414047    -0.86400
C112        C  0.29327472  0.45394256  0.33518031     0.95900
C113        C  0.16580628  0.44762310  0.34093733     0.95700
N114        N  0.28233328  0.20280107  0.59598676    -0.06600
N115        N  0.30832383  0.22224489  0.59463328    -0.58700
N116        N  0.20678048  0.18285660  0.58200528    -0.06200
N117        N  0.18027256  0.18656192  0.57165642    -0.60800
N118        N  0.20734061  0.20461302  0.59665443    -0.05800
N119        N  0.18102776  0.22374612  0.59655185    -0.58700
N120        N  0.28079941  0.18121386  0.58132742    -0.05500
N121        N  0.30544533  0.18540812  0.56964646    -0.61200
C122        C  0.32233751  0.21112768  0.57801263     0.95600
C123        C  0.16457251  0.21218661  0.58076642     0.95400
N124        N  0.20330700  0.07781484  0.58912965    -0.06700
N125        N  0.17767522  0.05916291  0.58472748    -0.59300
N126        N  0.27883049  0.10183443  0.57776276    -0.04900
N127        N  0.30434508  0.10135166  0.56663499    -0.60500
N128        N  0.27844066  0.07484353  0.58940373    -0.06800
N129        N  0.30393552  0.05536785  0.58607332    -0.59500
N130        N  0.20555819  0.10387458  0.57691807    -0.04500
N131        N  0.18216265  0.10321340  0.56395299    -0.60600
Mn132      Mn  0.24303383  0.14255133  0.57894459     1.18400
C133        C  0.16464954  0.07537195  0.56886634     0.97700
C134        C  0.32006781  0.07227443  0.57168998     0.98400
N135        N  0.20993265  0.19815077  0.64214294    -0.06800
N136        N  0.19080377  0.22320999  0.64769225    -0.63100
N137        N  0.28171551  0.16907992  0.65440634    -0.05600
N138        N  0.30038899  0.17616923  0.66954506    -0.63800
N139        N  0.28268816  0.19460817  0.64166340    -0.06300
N140        N  0.30238139  0.21886901  0.64775064    -0.63400
N141        N  0.20877923  0.17224598  0.65457661    -0.05200
N142        N  0.18871357  0.17942351  0.66887253    -0.64100
Mn143      Mn  0.24570605  0.20100797  0.61901007     1.10700
C144        C  0.17741009  0.21126821  0.66430729     0.98900
C145        C  0.31341282  0.20725684  0.66517581     0.99000
N146        N  0.27678735  0.06422225  0.63553374    -0.06300
N147        N  0.29315943  0.03587750  0.63957786    -0.61700
N148        N  0.20546953  0.09026981  0.65025617    -0.05600
N149        N  0.18759035  0.07928184  0.66482769    -0.58400
N150        N  0.20474693  0.06793977  0.63581457    -0.06900
N151        N  0.18684483  0.04116464  0.64066865    -0.61200
N152        N  0.27806150  0.08569564  0.65038525    -0.05900
N153        N  0.29538281  0.07204916  0.66471471    -0.58400
Mn154      Mn  0.24064630  0.07018259  0.61217992     1.20200
Mn155      Mn  0.24361148  0.12933102  0.65273881     1.10100
Cl156      Cl  0.24330384  0.13565924  0.61582809    -0.86400
C157        C  0.30508194  0.04117092  0.65772801     0.95900
C158        C  0.17614176  0.04851244  0.65882717     0.95700
N159        N  0.29175834  0.50523943  0.00142103    -0.37000
N160        N  0.24625707  0.01560688  0.97012182    -0.57600
N161        N  0.19540457  0.00200073  0.99783884    -0.37000
N162        N  0.24058767  0.49301884  0.02974628    -0.57600
C163        C  0.31117884  0.01889661  0.98755307     0.26500
C164        C  0.30825882  0.50521755  0.01849966     0.26500
C165        C  0.17878252  0.01550143  0.98257047     0.26500
C166        C  0.17608425  0.50333359  0.01361315     0.26500
C167        C  0.27334465  0.01521768  0.95941398     0.35200
C168        C  0.22143442  0.01267866  0.95747088     0.35200
C169        C  0.26591758  0.48124871  0.04023218     0.35200
C170        C  0.21398357  0.47994602  0.03823362     0.35200
C171        C  0.34023011  0.02806974  0.99600974    -0.22300
C172        C  0.33849809  0.51909595  0.01548019    -0.22300
C173        C  0.14874120  0.02595070  0.98884132    -0.22300
C174        C  0.14702532  0.51819018  0.00839413    -0.22300
C175        C  0.26571789  0.01224144  0.93975695    -0.23400
C176        C  0.23274451  0.01053852  0.93852726    -0.23400
C177        C  0.25533917  0.46141613  0.05582450    -0.23400
C178        C  0.22236672  0.46041859  0.05448409    -0.23400
C179        C  0.30455478  0.02004198  0.96718320    -0.18700
C180        C  0.29839272  0.48857594  0.03593691    -0.18700
C181        C  0.18232578  0.48681712  0.03173705    -0.18700
C182        C  0.18886708  0.01565882  0.96282703    -0.18700
H183        H  0.36097940  0.03880477  0.98877199     0.14200
H184        H  0.35774798  0.52162219  0.02604699     0.14200
H185        H  0.12961643  0.03704349  0.98008283     0.14200
H186        H  0.12633412  0.52186924  0.01761266     0.14200
H187        H  0.28214700  0.01193183  0.92758901     0.12500
H188        H  0.21867816  0.00888796  0.92522219     0.12500
H189        H  0.26987206  0.44873145  0.06687429     0.12500
H190        H  0.20642604  0.44694316  0.06432348     0.12500
H191        H  0.27054169  0.49193239  0.99893141     0.25700
H192        H  0.21650758  0.48786054  0.99682793     0.25700
N193        N  0.19987232  0.25081313  0.00099114    -0.37000
N194        N  0.25077029  0.24008641  0.97320465    -0.57600
N195        N  0.29583541  0.25122512  0.00533121    -0.37000
N196        N  0.24499832  0.26310255  0.03249696    -0.57600
C197        C  0.18370752  0.25121350  0.98380201     0.26500
C198        C  0.18045744  0.26497431  0.01451096     0.26500
C199        C  0.31520466  0.25276535  0.98959292     0.26500
C200        C  0.31225467  0.26481367  0.02057847     0.26500
C201        C  0.22601783  0.22707262  0.96275449     0.35200
C202        C  0.27787346  0.22813963  0.96496743     0.35200
C203        C  0.21773679  0.26193568  0.04294121     0.35200
C204        C  0.26950871  0.26116845  0.04542981     0.35200
C205        C  0.15376341  0.26594951  0.98637074    -0.22300
C206        C  0.15175845  0.27480771  0.00574663    -0.22300
C207        C  0.34416726  0.26777779  0.99482429    -0.22300
C208        C  0.34227536  0.27549608  0.01437191    -0.22300
C209        C  0.23738685  0.20740116  0.94746110    -0.23400
C210        C  0.27039209  0.20812779  0.94884280    -0.23400
C211        C  0.22487608  0.25959176  0.06271127    -0.23400
C212        C  0.25781800  0.25889725  0.06428615    -0.23400
C213        C  0.19345593  0.23393597  0.96673183    -0.18700
C214        C  0.18679141  0.26616900  0.03483022    -0.18700
C215        C  0.30205652  0.26459310  0.04028086    -0.18700
C216        C  0.30913013  0.23636846  0.97154134    -0.18700
H217        H  0.13492529  0.26890978  0.97553532     0.14200
H218        H  0.13106911  0.28607927  0.01272016     0.14200
H219        H  0.36491835  0.27161274  0.98565293     0.14200
H220        H  0.36123941  0.28667465  0.02315856     0.14200
H221        H  0.22338917  0.19402999  0.93649960     0.12500
H222        H  0.28695480  0.19536720  0.93915659     0.12500
H223        H  0.20812604  0.25905877  0.07471609     0.12500
H224        H  0.27157137  0.25783819  0.07773855     0.12500
H225        H  0.22051631  0.23697226  0.00385990     0.25700
H226        H  0.27501575  0.23691428  0.00624655     0.25700
N227        N  0.46156972  0.18817607  0.90891480    -0.06600
N228        N  0.43719077  0.20853960  0.91342218    -0.58700
N229        N  0.53590727  0.15992636  0.91986565    -0.06200
N230        N  0.06133354  0.16016118  0.93130594    -0.60800
N231        N  0.53646401  0.18623843  0.90775574    -0.05800
N232        N  0.06255831  0.20491835  0.91101608    -0.58700
N233        N  0.46245307  0.16183044  0.92098426    -0.05500
N234        N  0.43896529  0.16362109  0.93358563    -0.61200
C235        C  0.42315989  0.19284892  0.92904145     0.95600
C236        C  0.07808972  0.18829241  0.92588244     0.95400
N237        N  0.53328688  0.05787798  0.90306078    -0.06700
N238        N  0.05897091  0.03779994  0.90404716    -0.59300
N239        N  0.45990750  0.08250060  0.91827445    -0.04900
N240        N  0.43542222  0.07945957  0.93022711    -0.60500
N241        N  0.45791266  0.05989907  0.90408389    -0.06800
N242        N  0.43172203  0.04083305  0.90617113    -0.59500
N243        N  0.53394489  0.08049462  0.91725508    -0.04500
N244        N  0.05976542  0.07640261  0.92820357    -0.60600
Mn245      Mn  0.49808484  0.12113700  0.91957856     1.18400
C246        C  0.07514291  0.04968182  0.91990891     0.97700
C247        C  0.41802538  0.05339176  0.92263629     0.98400
N248        N  0.03295541  0.19397384  0.86135040    -0.06800
N249        N  0.05015461  0.22114871  0.85632533    -0.63100
N250        N  0.45914552  0.17215345  0.84811526    -0.05600
N251        N  0.44040198  0.18313621  0.83379935    -0.63800
N252        N  0.46061069  0.19523250  0.86214283    -0.06300
N253        N  0.44320616  0.22246259  0.85730185    -0.63400
N254        N  0.03169080  0.17182880  0.84683015    -0.05200
N255        N  0.04788823  0.18393360  0.83174548    -0.64100
Mn256      Mn  0.49789233  0.19199267  0.88528714     1.10700
C257        C  0.05953781  0.21465705  0.83782913     0.98900
C258        C  0.43059501  0.21463143  0.83956979     0.99000
N259        N  0.45764937  0.06450738  0.85762179    -0.06300
N260        N  0.43766012  0.04019751  0.85182090    -0.61700
N261        N  0.03064405  0.08878558  0.84441136    -0.05600
N262        N  0.04960149  0.08107044  0.82967639    -0.58400
N263        N  0.03064034  0.06345654  0.85728224    -0.06900
N264        N  0.04985356  0.03851794  0.85162709    -0.61200
N265        N  0.45750899  0.09024680  0.84503261    -0.05900
N266        N  0.43720822  0.08383817  0.83060038    -0.58400
Mn267      Mn  0.49475353  0.06033223  0.88061149     1.20200
Mn268      Mn  0.49480426  0.13068111  0.84581607     1.10100
Cl269      Cl  0.49635940  0.12609718  0.88272148    -0.86400
C270        C  0.42476261  0.05251477  0.83495840     0.95900
C271        C  0.06178990  0.04971994  0.83441254     0.95700
N272        N  0.09250015  0.38305761  0.77397883    -0.37000
N273        N  0.10420187  0.32937391  0.74653086    -0.57600
N274        N  0.12475228  0.37979458  0.71772564    -0.37000
N275        N  0.11294171  0.43379136  0.74537204    -0.57600
C276        C  0.09318281  0.35518750  0.78594425     0.26500
C277        C  0.09700978  0.41118423  0.78519462     0.26500
C278        C  0.13705925  0.35041957  0.71035197     0.26500
C279        C  0.14058059  0.40648062  0.70940320     0.26500
C280        C  0.08830963  0.31113169  0.76023909     0.35200
C281        C  0.10590608  0.30929772  0.73056629     0.35200
C282        C  0.09959481  0.45471357  0.75870325     0.35200
C283        C  0.11662234  0.45290009  0.72902176     0.35200
C284        C  0.09829768  0.36577164  0.80503535    -0.22300
C285        C  0.10044315  0.40124385  0.80457398    -0.22300
C286        C  0.16092331  0.35853655  0.69705468    -0.22300
C287        C  0.16304626  0.39401682  0.69640017    -0.22300
C288        C  0.07913086  0.27944625  0.75279860    -0.23400
C289        C  0.09048801  0.27820406  0.73397091    -0.23400
C290        C  0.09467512  0.48728429  0.75082223    -0.23400
C291        C  0.10552215  0.48613322  0.73194015    -0.23400
C292        C  0.08670535  0.32094034  0.78005873    -0.18700
C293        C  0.09502813  0.44555106  0.77840959    -0.18700
C294        C  0.13355710  0.44167719  0.71249862    -0.18700
C295        C  0.12558900  0.31677968  0.71439822    -0.18700
H296        H  0.09952382  0.34969774  0.81798828     0.14200
H297        H  0.10369529  0.41786791  0.81707636     0.14200
H298        H  0.17498963  0.34077407  0.68849410     0.14200
H299        H  0.17908834  0.40893508  0.68731040     0.14200
H300        H  0.06708158  0.25876277  0.76046950     0.12500
H301        H  0.08891113  0.25638340  0.72422935     0.12500
H302        H  0.08525224  0.00974511  0.75810709     0.12500
H303        H  0.10621268  0.00754906  0.72175624     0.12500
H304        H  0.08518310  0.38339417  0.75941019     0.25700
H305        H  0.10427368  0.38163297  0.72626751     0.25700
N306        N  0.36956362  0.32778863  0.75244712    -0.37000
N307        N  0.38041512  0.38358839  0.77951449    -0.57600
N308        N  0.36158815  0.43198737  0.74896348    -0.37000
N309        N  0.34997641  0.37605874  0.72231115    -0.57600
C310        C  0.37139061  0.31090621  0.76972412     0.26500
C311        C  0.35463005  0.30658238  0.73972370     0.26500
C312        C  0.36162895  0.45255385  0.76488352     0.26500
C313        C  0.34544696  0.44870544  0.73451241     0.26500
C314        C  0.39531099  0.35769367  0.78923740     0.35200
C315        C  0.39095214  0.41323088  0.78752774     0.35200
C316        C  0.35161373  0.34696704  0.71162478     0.35200
C317        C  0.34765868  0.40258444  0.70951778     0.35200
C318        C  0.35741889  0.27863672  0.76800652    -0.22300
C319        C  0.34673412  0.27592681  0.74902698    -0.22300
C320        C  0.34519074  0.48274175  0.76053286    -0.22300
C321        C  0.33500323  0.48032682  0.74136074    -0.22300
C322        C  0.41532232  0.37081875  0.80360128    -0.23400
C323        C  0.41256791  0.40612650  0.80252212    -0.23400
C324        C  0.35027735  0.35497906  0.69187998    -0.23400
C325        C  0.34785729  0.39029153  0.69053835    -0.23400
C326        C  0.38872529  0.32247317  0.78618601    -0.18700
C327        C  0.35026353  0.31332634  0.71961464    -0.18700
C328        C  0.34236885  0.43726768  0.71491133    -0.18700
C329        C  0.37941861  0.44633125  0.78231040    -0.18700
H330        H  0.35584141  0.25881474  0.77914479     0.14200
H331        H  0.33516866  0.25362684  0.74268176     0.14200
H332        H  0.34176297  0.00463869  0.77000729     0.14200
H333        H  0.32204202  0.99993689  0.73324662     0.14200
H334        H  0.42989781  0.35645075  0.81394626     0.12500
H335        H  0.42473723  0.42442787  0.81186320     0.12500
H336        H  0.35013490  0.33717681  0.67976150     0.12500
H337        H  0.34557485  0.40511613  0.67716382     0.12500
H338        H  0.38166874  0.35039853  0.74888947     0.25700
H339        H  0.37562135  0.41008633  0.74725928     0.25700
N340        N  0.10862936  0.12303968  0.22275423    -0.37000
N341        N  0.11749957  0.17244227  0.25394665    -0.57600
N342        N  0.12598472  0.11621375  0.28149586    -0.37000
N343        N  0.11533381  0.06651269  0.25099585    -0.57600
C344        C  0.09906542  0.15246350  0.21361697     0.26500
C345        C  0.09881074  0.09622790  0.21163952     0.26500
C346        C  0.12399866  0.14314526  0.29382065     0.26500
C347        C  0.12255927  0.08723059  0.29228419     0.26500
C348        C  0.11776873  0.19431304  0.23857438     0.35200
C349        C  0.12856923  0.19042752  0.26936909     0.35200
C350        C  0.11408893  0.04790745  0.23437816     0.35200
C351        C  0.12538162  0.04483001  0.26534191     0.35200
C352        C  0.08370198  0.14430931  0.19626587    -0.22300
C353        C  0.08404891  0.10901261  0.19483036    -0.22300
C354        C  0.11912359  0.13125861  0.31269781    -0.22300
C355        C  0.11804728  0.09586284  0.31171765    -0.22300
C356        C  0.12872119  0.22646516  0.24426362    -0.23400
C357        C  0.13574154  0.22396746  0.26380704    -0.23400
C358        C  0.12254677  0.01396846  0.23837045    -0.23400
C359        C  0.13052025  0.01226682  0.25782099    -0.23400
C360        C  0.10524987  0.18657200  0.21995822    -0.18700
C361        C  0.10341140  0.06058813  0.21596635    -0.18700
C362        C  0.12752751  0.05341364  0.28538273    -0.18700
C363        C  0.12988833  0.17777262  0.28868541    -0.18700
H364        H  0.07373568  0.16196778  0.18554319     0.14200
H365        H  0.07435197  0.09458260  0.18268412     0.14200
H366        H  0.11743907  0.14647015  0.32585830     0.14200
H367        H  0.11550069  0.07841066  0.32399838     0.14200
H368        H  0.13090394  0.24943188  0.23532638     0.12500
H369        H  0.14437818  0.24470043  0.27295535     0.12500
H370        H  0.12249869  0.49239064  0.22846350     0.12500
H371        H  0.13769041  0.48927130  0.26568039     0.12500
H372        H  0.12348576  0.12133846  0.23492171     0.25700
H373        H  0.13437266  0.11739924  0.26726819     0.25700
N374        N  0.34353202  0.06767902  0.24441625    -0.37000
N375        N  0.33611456  0.12136057  0.27403524    -0.57600
N376        N  0.35571253  0.17256641  0.24568984    -0.37000
N377        N  0.36535163  0.11932770  0.21655202    -0.57600
C378        C  0.33984066  0.04836804  0.26081175     0.26500
C379        C  0.35583972  0.04682662  0.23050968     0.26500
C380        C  0.35628075  0.19126951  0.26231582     0.26500
C381        C  0.37254498  0.19040579  0.23220965     0.26500
C382        C  0.32227220  0.09468568  0.28348064     0.35200
C383        C  0.32776479  0.15008248  0.28384709     0.35200
C384        C  0.36641862  0.09146858  0.20476386     0.35200
C385        C  0.37137029  0.14730296  0.20525947     0.35200
C386        C  0.34888817  0.01468149  0.25710719    -0.22300
C387        C  0.35864641  0.01361426  0.23801480    -0.22300
C388        C  0.37349980  0.22134596  0.25937529    -0.22300
C389        C  0.38383265  0.22079808  0.24038572    -0.22300
C390        C  0.30531678  0.10643715  0.29947522    -0.23400
C391        C  0.30869670  0.14163533  0.29966008    -0.23400
C392        C  0.37312844  0.10186792  0.18581168    -0.23400
C393        C  0.37592928  0.13722293  0.18608999    -0.23400
C394        C  0.32686440  0.05968292  0.27876568    -0.18700
C395        C  0.36523232  0.05671170  0.21131750    -0.18700
C396        C  0.37650687  0.18113045  0.21241508    -0.18700
C397        C  0.33909611  0.18347607  0.27946617    -0.18700
H398        H  0.34873069  0.49303487  0.26717268     0.14200
H399        H  0.36753355  0.49090472  0.23067337     0.14200
H400        H  0.37769959  0.24183209  0.26975176     0.14200
H401        H  0.39771741  0.24081559  0.23333434     0.14200
H402        H  0.29217985  0.09118811  0.31001513     0.12500
H403        H  0.29874666  0.15893947  0.31038597     0.12500
H404        H  0.37654197  0.08564309  0.17319048     0.12500
H405        H  0.38205885  0.15347538  0.17377053     0.12500
H406        H  0.33583309  0.09285000  0.24247530     0.25700
H407        H  0.34126277  0.15134573  0.24298317     0.25700
N408        N  0.45925905  0.30277411  0.09812610    -0.06600
N409        N  0.43419739  0.28181668  0.09744135    -0.58700
N410        N  0.53126092  0.32973529  0.08265251    -0.06200
N411        N  0.05550952  0.32721837  0.07050346    -0.60800
N412        N  0.53408688  0.30706714  0.09689761    -0.05800
N413        N  0.06046439  0.28852555  0.09469056    -0.58700
N414        N  0.45722766  0.32606848  0.08417474    -0.05500
N415        N  0.43098068  0.32147447  0.07367727    -0.61200
C416        C  0.41691930  0.29369065  0.08197891     0.95600
C417        C  0.07353162  0.30145382  0.07810613     0.95400
N418        N  0.52806639  0.43502006  0.09278946    -0.06700
N419        N  0.05248272  0.45576619  0.08874998    -0.59300
N420        N  0.45384997  0.40668223  0.08180441    -0.04900
N421        N  0.42876894  0.40886806  0.07004127    -0.60500
N422        N  0.45323802  0.43164859  0.09465288    -0.06800
N423        N  0.42742030  0.45092277  0.09188928    -0.59500
N424        N  0.52770544  0.40918062  0.08051050    -0.04500
N425        N  0.05177003  0.41154334  0.06828763    -0.60600
Mn426      Mn  0.49234875  0.36785316  0.08171336     1.18400
C427        C  0.06716266  0.44082124  0.07321527     0.97700
C428        C  0.41210486  0.43651868  0.07638711     0.98400
N429        N  0.03514395  0.30933706  0.14348296    -0.06800
N430        N  0.05472600  0.28459408  0.14944574    -0.63100
N431        N  0.46138343  0.33018597  0.15693532    -0.05600
N432        N  0.44092875  0.32093903  0.17075296    -0.63800
N433        N  0.46208273  0.30636913  0.14332585    -0.06300
N434        N  0.44185440  0.28132989  0.14728881    -0.63400
N435        N  0.03467384  0.33438318  0.15638495    -0.05200
N436        N  0.05403769  0.32700633  0.17118413    -0.64100
Mn437      Mn  0.49795561  0.30549007  0.12035503     1.10700
C438        C  0.06657309  0.29585620  0.16674525     0.98900
C439        C  0.42855429  0.29052319  0.16436232     0.99000
N440        N  0.45691013  0.43661606  0.14096219    -0.06300
N441        N  0.43639742  0.46126185  0.14547652    -0.61700
N442        N  0.03148918  0.41712863  0.15360697    -0.05600
N443        N  0.05202194  0.42824733  0.16695532    -0.58400
N444        N  0.02999168  0.43932358  0.13899801    -0.06900
N445        N  0.04956584  0.46546120  0.14211598    -0.61200
N446        N  0.45841547  0.41357146  0.15515487    -0.05900
N447        N  0.43907581  0.42233219  0.16952852    -0.58400
Mn448      Mn  0.49198491  0.43670894  0.11670390     1.20200
Mn449      Mn  0.49648352  0.37386583  0.15601024     1.10100
Cl450      Cl  0.49471850  0.37102829  0.11878833    -0.86400
C451        C  0.42510557  0.45191543  0.16324092     0.95900
C452        C  0.06348561  0.45830922  0.15955695     0.95700
C453        C  0.37773695  0.98887697  0.17151277    -0.02300
C454        C  0.40874095  0.47669791  0.17633123     0.07400
C455        C  0.42463757  0.48994683  0.19296804    -0.02400
C456        C  0.41100626  0.01738007  0.20344117    -0.02400
C457        C  0.37998969  0.02953585  0.19872065     0.07500
C458        C  0.36298549  0.01442349  0.18304670    -0.02600
Br459      Br  0.31937561  0.02810000  0.17768258    -0.01100
Br460      Br  0.35488339  0.46875202  0.14981189    -0.01200
Br461      Br  0.43511260  0.03866644  0.22438196    -0.01200
Br462      Br  0.46428836  0.46996036  0.20226930    -0.01200
C463        C  0.43529598  0.23666617  0.18411007    -0.02300
C464        C  0.41531038  0.26378842  0.17748879     0.07400
C465        C  0.38228280  0.26293342  0.18160401    -0.02400
C466        C  0.36926622  0.23494761  0.19213761    -0.02400
C467        C  0.38940790  0.20822736  0.19906482     0.07500
C468        C  0.42253432  0.20952406  0.19529695    -0.02600
Br469      Br  0.45068873  0.17486292  0.20626870    -0.01100
Br470      Br  0.48030462  0.23620210  0.17774221    -0.01200
Br471      Br  0.32385930  0.23304595  0.19719588    -0.01200
Br472      Br  0.35490654  0.29974709  0.17243537    -0.01200
C473        C  0.10717331  0.48925712  0.17776682    -0.02300
C474        C  0.07458878  0.48619834  0.17256668     0.07400
C475        C  0.05207862  0.50918625  0.18051286    -0.02400
C476        C  0.06112881  0.03069449  0.19604852    -0.02400
C477        C  0.09385616  0.03489568  0.20081990     0.07500
C478        C  0.11708983  0.01511970  0.19092389    -0.02600
Br479      Br  0.16217795  0.02343428  0.19535221    -0.01100
Br480      Br  0.13824877  0.45886524  0.16628749    -0.01200
Br481      Br  0.02832561  0.05374442  0.21092016    -0.01200
Br482      Br  0.50992208  0.51387575  0.16907934    -0.01200
C483        C  0.10618101  0.25115523  0.17778426    -0.02300
C484        C  0.07873527  0.27116446  0.18175747     0.07400
C485        C  0.06136227  0.26481493  0.19914059    -0.02400
C486        C  0.06962189  0.23667080  0.21125109    -0.02400
C487        C  0.09647080  0.21607329  0.20686797     0.07500
C488        C  0.11533619  0.22411492  0.19047920    -0.02600
Br489      Br  0.15394438  0.19820233  0.18566578    -0.01100
Br490      Br  0.13205775  0.26176580  0.15530288    -0.01200
Br491      Br  0.04332994  0.22539852  0.23355934    -0.01200
Br492      Br  0.02594394  0.29386059  0.20672545    -0.01200
C493        C  0.10237059  0.52134812  0.81311179    -0.02300
C494        C  0.07038389  0.02470672  0.81921768     0.07400
C495        C  0.04642360  0.00304903  0.81134587    -0.02400
C496        C  0.05457885  0.97757321  0.79779740    -0.02400
C497        C  0.08679040  0.47302088  0.79247120     0.07500
C498        C  0.11068583  0.49515421  0.79991619    -0.02600
Br499      Br  0.15469553  0.48920947  0.79213200    -0.01100
Br500      Br  0.13460768  0.55249582  0.82289331    -0.01200
Br501      Br  0.02149360  0.94947479  0.78603906    -0.01200
Br502      Br  0.00223847  0.00821263  0.81896731    -0.01200
C503        C  0.10189964  0.26688017  0.79864562    -0.02300
C504        C  0.07993341  0.29406522  0.79526795     0.07400
C505        C  0.05159657  0.29564244  0.80639637    -0.02400
C506        C  0.04541439  0.27044439  0.82080401    -0.02400
C507        C  0.06697907  0.24266626  0.82371874     0.07500
C508        C  0.09499103  0.24084006  0.81241284    -0.02600
Br509      Br  0.12421316  0.20273420  0.81601881    -0.01100
Br510      Br  0.14216186  0.26581604  0.78495676    -0.01200
Br511      Br  0.50650064  0.27366709  0.83583566    -0.01200
Br512      Br  0.02057254  0.33175592  0.80149138    -0.01200
C513        C  0.38652259  0.00472692  0.82682191    -0.02300
C514        C  0.40934087  0.02919446  0.82038849     0.07400
C515        C  0.41970536  0.02820265  0.80067677    -0.02400
C516        C  0.41018199  0.50086118  0.78849693    -0.02400
C517        C  0.38799672  0.47610049  0.79511052     0.07500
C518        C  0.37546025  0.47873476  0.81413826    -0.02600
Br519      Br  0.34369600  0.44610847  0.82300688    -0.01100
Br520      Br  0.36973648  0.00704509  0.85304071    -0.01200
Br521      Br  0.43000999  0.49534722  0.76323920    -0.01200
Br522      Br  0.44775410  0.06295508  0.78984775    -0.01200
C523        C  0.39598480  0.26548685  0.83145277    -0.02300
C524        C  0.41966773  0.24174087  0.82562402     0.07400
C525        C  0.43388033  0.24539140  0.80693168    -0.02400
C526        C  0.42463921  0.27274577  0.79453723    -0.02400
C527        C  0.40067091  0.29608037  0.80035361     0.07500
C528        C  0.38645377  0.29247459  0.81886221    -0.02600
Br529      Br  0.35314795  0.32390890  0.82674839    -0.01100
Br530      Br  0.37506313  0.25992677  0.85631011    -0.01200
Br531      Br  0.44538082  0.27888864  0.76955110    -0.01200
Br532      Br  0.46688168  0.21428838  0.79795053    -0.01200
C533        C  0.12732462  0.31689788  0.06481875    -0.02300
C534        C  0.10479752  0.29117185  0.06979986     0.07400
C535        C  0.11106675  0.25648240  0.06498510    -0.02400
C536        C  0.13867693  0.24805616  0.05423339    -0.02400
C537        C  0.15974825  0.27426726  0.04805933     0.07500
C538        C  0.15423657  0.30861693  0.05354824    -0.02600
Br539      Br  0.18276765  0.34458303  0.04468775    -0.01100
Br540      Br  0.12243228  0.36332416  0.07425980    -0.01200
Br541      Br  0.14732260  0.20082995  0.04730886    -0.01200
Br542      Br  0.08113493  0.22069816  0.07201848    -0.01200
C543        C  0.34958779  0.24224308  0.05912059    -0.02300
C544        C  0.32710008  0.26886313  0.05577141     0.07400
C545        C  0.33123749  0.30081999  0.06516856    -0.02400
C546        C  0.35921625  0.30702882  0.07620747    -0.02400
C547        C  0.38409779  0.28245915  0.07665443     0.07500
C548        C  0.37842924  0.24920954  0.06921619    -0.02600
Br549      Br  0.41084114  0.21402444  0.07163391    -0.01100
Br550      Br  0.34127175  0.19678475  0.04898528    -0.01200
Br551      Br  0.36340222  0.34873563  0.09126291    -0.01200
Br552      Br  0.30004058  0.33703793  0.06169613    -0.01200
C553        C  0.12845549  0.22616232  0.92755736    -0.02300
C554        C  0.10959321  0.19858682  0.93520868     0.07400
C555        C  0.12143029  0.18067138  0.95213926    -0.02400
C556        C  0.15049543  0.19061479  0.96104044    -0.02400
C557        C  0.16749736  0.21936003  0.95414818     0.07500
C558        C  0.15684725  0.23669771  0.93725260    -0.02600
Br559      Br  0.18089683  0.27594865  0.92797917    -0.01100
Br560      Br  0.11662557  0.25061368  0.90390976    -0.01200
Br561      Br  0.16714801  0.16544890  0.98346674    -0.01200
Br562      Br  0.09855760  0.14332654  0.96487133    -0.01200
C563        C  0.38350004  0.18666559  0.95706337    -0.02300
C564        C  0.39375457  0.20464748  0.93985584     0.07400
C565        C  0.37516021  0.23334722  0.93328623    -0.02400
C566        C  0.34738987  0.24342166  0.94350230    -0.02400
C567        C  0.33735633  0.22489346  0.96004084     0.07500
C568        C  0.35527861  0.19652173  0.96670106    -0.02600
Br569      Br  0.34078036  0.17111928  0.98947238    -0.01100
Br570      Br  0.40730107  0.14895435  0.96902119    -0.01200
Br571      Br  0.32318335  0.28351726  0.93535607    -0.01200
Br572      Br  0.38657369  0.26008521  0.91051129    -0.01200
C573        C  0.14587846  0.48889864  0.06133600    -0.02300
C574        C  0.15408114  0.47419759  0.04325076     0.07400
C575        C  0.13396646  0.44886375  0.03508823    -0.02400
C576        C  0.10505984  0.43957215  0.04423350    -0.02400
C577        C  0.09686091  0.45338201  0.06285235     0.07500
C578        C  0.11797701  0.47805089  0.07135408    -0.02600
Br579      Br  0.11005710  0.49736458  0.09683358    -0.01100
Br580      Br  0.17258924  0.52484458  0.07211557    -0.01200
Br581      Br  0.07680568  0.40925589  0.02965620    -0.01200
Br582      Br  0.14635441  0.42634706  0.01107245    -0.01200
C583        C  0.33985438  0.49421063  0.06271908    -0.02300
C584        C  0.32423567  0.47392979  0.04865180     0.07400
C585        C  0.33568825  0.44077521  0.04459226    -0.02400
C586        C  0.36421986  0.42863031  0.05333042    -0.02400
C587        C  0.38106882  0.44914746  0.06734035     0.07500
C588        C  0.36789894  0.48200790  0.07220913    -0.02600
Br589      Br  0.38827229  0.01266371  0.09082891    -0.01100
Br590      Br  0.32321873  0.03970975  0.06820694    -0.01200
Br591      Br  0.37937833  0.38423370  0.04446881    -0.01200
Br592      Br  0.31212872  0.41235006  0.02625349    -0.01200
C593        C  0.11223305  0.00434941  0.93335860    -0.02300
C594        C  0.10734863  0.03824209  0.92646512     0.07400
C595        C  0.13213328  0.06278496  0.92842872    -0.02400
C596        C  0.16009075  0.05469195  0.93912502    -0.02400
C597        C  0.16380237  0.02164263  0.94748709     0.07500
C598        C  0.14062124  0.99596659  0.94364732    -0.02600
Br599      Br  0.14726008  0.44979508  0.95335446    -0.01100
Br600      Br  0.07889478  0.47036824  0.93036741    -0.01200
Br601      Br  0.19207599  0.08979751  0.94359844    -0.01200
Br602      Br  0.12770543  0.10775593  0.91653329    -0.01200
C603        C  0.36249971  0.06778517  0.93361402    -0.02300
C604        C  0.38662712  0.04275702  0.93086629     0.07400
C605        C  0.38223674  0.00925598  0.93848051    -0.02400
C606        C  0.35493494  0.00153054  0.94980660    -0.02400
C607        C  0.33175400  0.02720020  0.95352234     0.07500
C608        C  0.33541983  0.06022017  0.94509196    -0.02600
Br609      Br  0.30431843  0.09582796  0.95023947    -0.01100
Br610      Br  0.36620147  0.11239600  0.92119250    -0.01200
Br611      Br  0.34980137  0.95609359  0.96094283    -0.01200
Br612      Br  0.41447286  0.97447646  0.93434697    -0.01200
C613        C  0.17065373  0.49039159  0.70393889    -0.02300
C614        C  0.14548319  0.46815345  0.69845355     0.07400
C615        C  0.13044783  0.47232024  0.68011144    -0.02400
C616        C  0.14063529  0.99845353  0.66718828    -0.02400
C617        C  0.16553368  0.02118092  0.67268480     0.07500
C618        C  0.18073202  0.01681763  0.69118152    -0.02600
Br619      Br  0.21661137  0.04519715  0.69922971    -0.01100
Br620      Br  0.19143040  0.48451845  0.72909394    -0.01200
Br621      Br  0.11944319  0.00371515  0.64218644    -0.01200
Br622      Br  0.09464136  0.44325265  0.67316932    -0.01200
C623        C  0.13757996  0.25782372  0.67088108    -0.02300
C624        C  0.16121708  0.23482672  0.67812463     0.07400
C625        C  0.17172621  0.23771075  0.69777341    -0.02400
C626        C  0.16007819  0.26457848  0.70951209    -0.02400
C627        C  0.13686390  0.28770194  0.70210940     0.07500
C628        C  0.12517543  0.28383586  0.68292170    -0.02600
Br629      Br  0.09240998  0.31465928  0.67310651    -0.01100
Br630      Br  0.12178682  0.25374515  0.64438294    -0.01200
Br631      Br  0.17774014  0.27138608  0.73536077    -0.01200
Br632      Br  0.20351432  0.20678548  0.70873514    -0.01200
C633        C  0.30203881  0.46218929  0.69094551    -0.02300
C634        C  0.33303904  0.46279720  0.69938374     0.07400
C635        C  0.35548236  0.48744424  0.69283829    -0.02400
C636        C  0.34643944  0.01254877  0.67887467    -0.02400
C637        C  0.31525149  0.01262031  0.67089653     0.07500
C638        C  0.29343860  0.98645074  0.67638766    -0.02600
Br639      Br  0.25171067  0.98361632  0.66410192    -0.01100
Br640      Br  0.27096787  0.42871587  0.69974178    -0.01200
Br641      Br  0.37714924  0.04619172  0.66996911    -0.01200
Br642      Br  0.39886912  0.48631327  0.70274056    -0.01200
C643        C  0.35329624  0.23199596  0.68866266    -0.02300
C644        C  0.32219580  0.23202251  0.68058283     0.07400
C645        C  0.29968565  0.25698993  0.68657843    -0.02400
C646        C  0.30858505  0.28221969  0.70017774    -0.02400
C647        C  0.34059018  0.28436879  0.70669511     0.07500
C648        C  0.36287228  0.25882352  0.70121788    -0.02600
Br649      Br  0.40657707  0.26107082  0.71049487    -0.01100
Br650      Br  0.38258713  0.19530776  0.68237463    -0.01200
Br651      Br  0.27665970  0.31315719  0.71052003    -0.01200
Br652      Br  0.25649035  0.25707319  0.67627446    -0.01200
C653        C  0.17591518  0.00368164  0.32348117    -0.02300
C654        C  0.15566137  0.47507853  0.32715590     0.07400
C655        C  0.12587558  0.47258562  0.31749766    -0.02400
C656        C  0.11599765  0.49861985  0.30435144    -0.02400
C657        C  0.13693533  0.02627254  0.29989173     0.07500
C658        C  0.16692703  0.02859910  0.30949797    -0.02600
Br659      Br  0.19628516  0.06562823  0.30319877    -0.01100
Br660      Br  0.21624220  0.00923642  0.33722378    -0.01200
Br661      Br  0.07364794  0.49685443  0.29290605    -0.01200
Br662      Br  0.09821589  0.43388670  0.32285777    -0.01200
C663        C  0.11648627  0.22433269  0.31242261    -0.02300
C664        C  0.13934400  0.20209193  0.30420257     0.07400
C665        C  0.17195419  0.20499682  0.30927870    -0.02400
C666        C  0.18201000  0.23153061  0.32168220    -0.02400
C667        C  0.15921488  0.25439726  0.32957137     0.07500
C668        C  0.12641784  0.25015273  0.32542683    -0.02600
Br669      Br  0.09529788  0.27917984  0.33796066    -0.01100
Br670      Br  0.07181749  0.21953371  0.30557771    -0.01200
Br671      Br  0.22715485  0.23673076  0.32739335    -0.01200
Br672      Br  0.20285578  0.17290929  0.29888905    -0.01200
C673        C  0.28322962  0.48543757  0.30333180    -0.02300
C674        C  0.30183377  0.48065093  0.32055549     0.07400
C675        C  0.32797357  0.00273238  0.32427915    -0.02400
C676        C  0.33654955  0.02813430  0.31052024    -0.02400
C677        C  0.31777002  0.03308006  0.29352037     0.07500
C678        C  0.29059128  0.01233727  0.29026599    -0.02600
Br679      Br  0.26295220  0.02184197  0.26810186    -0.01100
Br680      Br  0.24662598  0.45656854  0.29757716    -0.01200
Br681      Br  0.37452734  0.05560047  0.31474180    -0.01200
Br682      Br  0.35268771  0.99768374  0.34808152    -0.01200
C683        C  0.30024325  0.26334864  0.30079191    -0.02300
C684        C  0.31585152  0.26570074  0.31926589     0.07400
C685        C  0.34059570  0.24206951  0.32396219    -0.02400
C686        C  0.34854574  0.21548854  0.31091187    -0.02400
C687        C  0.33177192  0.21219532  0.29310270     0.07500
C688        C  0.30802728  0.23643372  0.28795352    -0.02600
Br689      Br  0.28520789  0.23174475  0.26340129    -0.01100
Br690      Br  0.26701756  0.29529374  0.29270621    -0.01200
Br691      Br  0.38257375  0.18355636  0.31729193    -0.01200
Br692      Br  0.36462901  0.24676461  0.34802064    -0.01200
C693        C  0.10145927  0.25981206  0.55218293    -0.02300
C694        C  0.07738925  0.23424963  0.55123459     0.07400
C695        C  0.07931706  0.20521973  0.56374709    -0.02400
C696        C  0.10654897  0.20044626  0.57572200    -0.02400
C697        C  0.13242041  0.22364814  0.57452266     0.07500
C698        C  0.12913371  0.25427074  0.56364584    -0.02600
Br699      Br  0.16364009  0.28729755  0.56338579    -0.01100
Br700      Br  0.09731445  0.30151165  0.53688362    -0.01200
Br701      Br  0.10921712  0.16146488  0.59333314    -0.01200
Br702      Br  0.04623057  0.17043096  0.56337259    -0.01200
C703        C  0.40500010  0.20033963  0.55762381    -0.02300
C704        C  0.41045692  0.23330421  0.54962950     0.07400
C705        C  0.38941690  0.26064578  0.55391286    -0.02400
C706        C  0.36123937  0.25420267  0.56457060    -0.02400
C707        C  0.35474807  0.22061634  0.57140823     0.07500
C708        C  0.37775275  0.19437722  0.56906386    -0.02600
Br709      Br  0.37211168  0.15033952  0.58181273    -0.01100
Br710      Br  0.43324611  0.16258272  0.55141629    -0.01200
Br711      Br  0.33052885  0.29061961  0.56845238    -0.01200
Br712      Br  0.39845123  0.30628242  0.54410049    -0.01200
C713        C  0.12725182  0.24341085  0.43305871    -0.02300
C714        C  0.13602360  0.27862571  0.43218710     0.07400
C715        C  0.11395415  0.30357986  0.43870360    -0.02400
C716        C  0.08687876  0.29367305  0.44938711    -0.02400
C717        C  0.07952184  0.25850477  0.45168445     0.07500
C718        C  0.09833647  0.23360663  0.44217389    -0.02600
Br719      Br  0.08447043  0.18621397  0.44204937    -0.01100
Br720      Br  0.15494625  0.20825767  0.42272180    -0.01200
Br721      Br  0.06038417  0.32852248  0.46131822    -0.01200
Br722      Br  0.11837926  0.35107480  0.43112252    -0.01200
C723        C  0.40356654  0.29861583  0.45078518    -0.02300
C724        C  0.41116607  0.26333263  0.45085555     0.07400
C725        C  0.39296338  0.24020476  0.43958225    -0.02400
C726        C  0.36567597  0.25194612  0.42925321    -0.02400
C727        C  0.35679670  0.28724406  0.43004127     0.07500
C728        C  0.37700500  0.31073000  0.44009712    -0.02600
Br729      Br  0.36975371  0.35997353  0.43903312    -0.01100
Br730      Br  0.42897587  0.33023870  0.46623608    -0.01200
Br731      Br  0.34006756  0.21855914  0.41529009    -0.01200
Br732      Br  0.40459185  0.19204922  0.43939801    -0.01200
C733        C  0.08739395  0.07939786  0.53819314    -0.02300
C734        C  0.07752935  0.04488442  0.53871099     0.07400
C735        C  0.09649546  0.02002359  0.54837795    -0.02400
C736        C  0.12507430  0.02972134  0.55797613    -0.02400
C737        C  0.13476392  0.06477014  0.55821708     0.07500
C738        C  0.11605052  0.08939055  0.54754278    -0.02600
Br739      Br  0.12930644  0.13668086  0.54392568    -0.01100
Br740      Br  0.06222414  0.11238620  0.52330520    -0.01200
Br741      Br  0.15239572  0.99370046  0.56839695    -0.01200
Br742      Br  0.08382339  0.97214867  0.54750745    -0.01200
C743        C  0.39051719  0.06688263  0.53595906    -0.02300
C744        C  0.40817850  0.03913168  0.54366716     0.07400
C745        C  0.39869465  0.02362881  0.56129383    -0.02400
C746        C  0.37058173  0.03475760  0.57083482    -0.02400
C747        C  0.35118848  0.06137433  0.56248574     0.07500
C748        C  0.36217116  0.07791512  0.54502665    -0.02600
Br749      Br  0.33933930  0.11530905  0.53211075    -0.01100
Br750      Br  0.40547505  0.08958800  0.51241645    -0.01200
Br751      Br  0.36024012  0.01321909  0.59552610    -0.01200
Br752      Br  0.42425986  0.98652246  0.57201601    -0.01200
C753        C  0.07660252  0.46616280  0.43383496    -0.02300
C754        C  0.07015836  0.45745036  0.45340139     0.07400
C755        C  0.09229805  0.43723435  0.46401693    -0.02400
C756        C  0.12244791  0.42947180  0.45610742    -0.02400
C757        C  0.12966083  0.43875515  0.43648804     0.07500
C758        C  0.10569266  0.45590152  0.42515525    -0.02600
Br759      Br  0.11123695  0.96511668  0.39760350    -0.01100
Br760      Br  0.04616836  0.99377376  0.41923368    -0.01200
Br761      Br  0.15390137  0.40860901  0.47342020    -0.01200
Br762      Br  0.08148046  0.42151496  0.49004424    -0.01200
C763        C  0.34167184  0.47875301  0.44799691    -0.02300
C764        C  0.34480720  0.45888596  0.43108003     0.07400
C765        C  0.37465353  0.45773313  0.42168005    -0.02400
C766        C  0.40229723  0.47022194  0.43136742    -0.02400
C767        C  0.40006753  0.48098085  0.45116934     0.07500
C768        C  0.36919455  0.49249315  0.45694043    -0.02600
Br769      Br  0.36423828  0.53291034  0.47306215    -0.01100
Br770      Br  0.29971433  0.48866872  0.45824007    -0.01200
Br771      Br  0.43869657  0.48246612  0.41544536    -0.01200
Br772      Br  0.37714288  0.44051821  0.39535720    -0.01200
N773        N  0.03683862  0.50505031  0.49528616    -0.37000
N774        N  0.49199874  0.52474181  0.52492808    -0.57600
N775        N  0.44151857  0.00458977  0.49811401    -0.37000
N776        N  0.48674867  0.98567086  0.46761880    -0.57600
C777        C  0.05652239  0.52328771  0.50715126     0.26500
C778        C  0.05330304  0.99877251  0.47874582     0.26500
C779        C  0.42642438  0.50450842  0.51555318     0.26500
C780        C  0.42307366  0.98598732  0.48570123     0.26500
C781        C  0.01859443  0.53607864  0.53412022     0.35200
C782        C  0.46683575  0.53433795  0.53587694     0.35200
C783        C  0.01144603  0.96656033  0.46102117     0.35200
C784        C  0.45969076  0.97152462  0.46030540     0.35200
C785        C  0.08551536  0.52907568  0.49784358    -0.22300
C786        C  0.08340124  0.01379463  0.47989128    -0.22300
C787        C  0.39887934  0.48469042  0.51442185    -0.22300
C788        C  0.39727262  0.97207575  0.49573167    -0.22300
C789        C  0.01034451  0.55278568  0.55123212    -0.23400
C790        C  0.47734663  0.55215306  0.55218511    -0.23400
C791        C  0.00013618  0.93934485  0.44996587    -0.23400
C792        C  0.46714658  0.94195305  0.44996873    -0.23400
C793        C  0.04987210  0.53368964  0.52649298    -0.18700
C794        C  0.04392105  0.97495195  0.46428871    -0.18700
C795        C  0.42854195  0.98245907  0.46538714    -0.18700
C796        C  0.43489284  0.52490473  0.53180013    -0.18700
H797        H  0.10634435  0.54240917  0.50351948     0.14200
H798        H  0.10240565  0.01251402  0.46922671     0.14200
H799        H  0.38162580  0.48004868  0.52587862     0.14200
H800        H  0.37865907  0.95546944  0.48999202     0.14200
H801        H  0.02632484  0.56505053  0.56159743     0.12500
H802        H  0.46285307  0.56285856  0.56371899     0.12500
H803        H  0.01413771  0.91946904  0.44299030     0.12500
H804        H  0.45054160  0.92378458  0.44350754     0.12500
H805        H  0.01541105  0.49320875  0.49916550     0.25700
H806        H  0.46072960  0.02027072  0.49414004     0.25700
N807        N  0.44582785  0.74385552  0.49954173    -0.37000
N808        N  0.99482820  0.74448827  0.46930812    -0.57600
N809        N  0.04298754  0.74202771  0.50030779    -0.37000
N810        N  0.99399593  0.73815646  0.53005292    -0.61600
C811        C  0.42751228  0.74098387  0.48328079     0.26500
C812        C  0.42714257  0.73557780  0.51494833     0.26500
C813        C  0.06157904  0.73820450  0.48433435     0.26500
C814        C  0.06084901  0.73286100  0.51610978     0.26500
C815        C  0.46911637  0.75334510  0.45824875     0.35200
C816        C  0.02099176  0.75215490  0.45857654     0.35200
C817        C  0.46794369  0.74256976  0.54134079     0.35200
C818        C  0.01980442  0.74232632  0.54178274     0.35200
C819        C  0.39672075  0.73111162  0.48840098    -0.22300
C820        C  0.39657597  0.72730983  0.50835049    -0.22300
C821        C  0.09170549  0.72666474  0.49006925    -0.22300
C822        C  0.09108595  0.72277080  0.51003439    -0.22300
C823        C  0.47891712  0.76527336  0.44013266    -0.23400
C824        C  0.01182267  0.76440406  0.44031123    -0.23400
C825        C  0.47715025  0.74927497  0.56042078    -0.23400
C826        C  0.01011256  0.74941698  0.56067461    -0.23400
C827        C  0.43685798  0.75082542  0.46426126    -0.18700
C828        C  0.43607556  0.73797835  0.53488133    -0.18700
C829        C  0.05177940  0.73672083  0.53595016    -0.18700
C830        C  0.05307753  0.74826116  0.46504753    -0.18700
H831        H  0.37625499  0.72760521  0.47882375     0.14200
H832        H  0.37596408  0.72031302  0.51703870     0.14200
H833        H  0.11228796  0.72203053  0.48092801     0.14200
H834        H  0.11108482  0.71464253  0.51910485     0.14200
H835        H  0.46393350  0.77403871  0.42812731     0.12500
H836        H  0.02722767  0.77239996  0.42846312     0.12500
H837        H  0.46172744  0.75326785  0.57285723     0.12500
H838        H  0.02520320  0.75336794  0.57338923     0.12500
H839        H  0.46812782  0.75541302  0.50020744     0.25700
H840        H  0.02129514  0.75491306  0.50059002     0.25700
N841        N  0.28332746  0.80431541  0.40506890    -0.06600
N842        N  0.31018768  0.78630503  0.40618214    -0.58700
N843        N  0.20882282  0.82175948  0.42163680    -0.06200
N844        N  0.18403300  0.81729788  0.43324488    -0.60800
N845        N  0.20874598  0.79843364  0.40781345    -0.05800
N846        N  0.18359492  0.77789799  0.40960346    -0.58700
N847        N  0.28240354  0.82720400  0.41911046    -0.05500
N848        N  0.30825566  0.82494711  0.43017597    -0.61200
C849        C  0.32561636  0.79952400  0.42194390     0.95600
C850        C  0.16839444  0.78984057  0.42561989     0.95400
N851        N  0.20130798  0.92667960  0.40901038    -0.06700
N852        N  0.17501863  0.94480741  0.41216536    -0.59300
N853        N  0.27780739  0.90743992  0.41956283    -0.04900
N854        N  0.30337589  0.91283639  0.43058270    -0.60500
N855        N  0.27535245  0.93142240  0.40597445    -0.06800
N856        N  0.29927481  0.95360398  0.40740629    -0.59500
N857        N  0.20405765  0.90198030  0.42208643    -0.04500
N858        N  0.17964536  0.90265209  0.43417705    -0.60600
Mn859      Mn  0.24333853  0.86458070  0.42134148     1.18400
C860        C  0.16155153  0.92954297  0.42797433     0.97700
C861        C  0.31660095  0.94147259  0.42272293     0.98400
N862        N  0.20440326  0.79962231  0.36277876    -0.06800
N863        N  0.18522435  0.77334470  0.35955347    -0.63100
N864        N  0.27377694  0.82848768  0.34564750    -0.05600
N865        N  0.29114790  0.82112436  0.33017640    -0.63800
N866        N  0.27670078  0.80393971  0.35887298    -0.06300
N867        N  0.29571455  0.77935727  0.35239928    -0.63400
N868        N  0.20108094  0.82316510  0.34902861    -0.05200
N869        N  0.17984153  0.81272982  0.33594154    -0.64100
Mn870      Mn  0.24362716  0.80062379  0.38378409     1.10700
C871        C  0.16986648  0.78170181  0.34280736     0.98900
C872        C  0.30475365  0.79031049  0.33443256     0.99000
N873        N  0.26867221  0.93424631  0.35970251    -0.06300
N874        N  0.28377559  0.96206796  0.35346512    -0.61700
N875        N  0.19660482  0.90638349  0.34897321    -0.05600
N876        N  0.17778052  0.91718026  0.33457709    -0.58400
N877        N  0.19667951  0.92913976  0.36317578    -0.06900
N878        N  0.17759005  0.95515795  0.35881215    -0.61200
N879        N  0.26855660  0.91051464  0.34601835    -0.05900
N880        N  0.28367583  0.92181239  0.33036749    -0.58400
Mn881      Mn  0.23558589  0.93115813  0.38470463     1.20200
Mn882      Mn  0.23491266  0.86698301  0.34708525     1.10100
Cl883      Cl  0.23946649  0.86588051  0.38415202    -0.86400
C884        C  0.29326975  0.95394969  0.33519124     0.95900
C885        C  0.16584575  0.94758871  0.34093469     0.95700
N886        N  0.28235695  0.70276918  0.59599884    -0.06600
N887        N  0.30835721  0.72219855  0.59465189    -0.58700
N888        N  0.20680398  0.68284561  0.58200855    -0.06200
N889        N  0.18030589  0.68656765  0.57165238    -0.60800
N890        N  0.20736594  0.70460102  0.59665788    -0.05800
N891        N  0.18106315  0.72374985  0.59654892    -0.58700
N892        N  0.28082089  0.68118462  0.58133824    -0.05500
N893        N  0.30547631  0.68536451  0.56966326    -0.61200
C894        C  0.32237524  0.71107297  0.57803462     0.95600
C895        C  0.16461353  0.71220180  0.58075857     0.95400
N896        N  0.20331726  0.57779776  0.58913190    -0.06700
N897        N  0.17768275  0.55914931  0.58473024    -0.59300
N898        N  0.27883938  0.60181831  0.57776446    -0.04900
N899        N  0.30435227  0.60134435  0.56663566    -0.60500
N900        N  0.27845459  0.57482482  0.58940323    -0.06800
N901        N  0.30395201  0.55535404  0.58606924    -0.59500
N902        N  0.20556622  0.60386162  0.57692274    -0.04500
N903        N  0.18216646  0.60320643  0.56396013    -0.60600
Mn904      Mn  0.24304764  0.64253370  0.57895010     1.18400
C905        C  0.16465299  0.57536405  0.56887193     0.97700
C906        C  0.32007926  0.57226868  0.57168624     0.98400
N907        N  0.20994154  0.69812541  0.64214246    -0.06800
N908        N  0.19079781  0.72317805  0.64768135    -0.63100
N909        N  0.28172358  0.66905687  0.65441787    -0.05600
N910        N  0.30040262  0.67614054  0.66955536    -0.63800
N911        N  0.28270133  0.69458336  0.64167445    -0.06300
N912        N  0.30240384  0.71883738  0.64775956    -0.63400
N913        N  0.20878017  0.67222072  0.65457566    -0.05200
N914        N  0.18869241  0.67939232  0.66886115    -0.64100
Mn915      Mn  0.24572431  0.70098481  0.61901721     1.10700
C916        C  0.17738611  0.71123442  0.66429015     0.98900
C917        C  0.31343650  0.70722304  0.66518419     0.99000
N918        N  0.27680568  0.56420740  0.63553488    -0.06300
N919        N  0.29319185  0.53587096  0.63957616    -0.61700
N920        N  0.20548211  0.59024424  0.65025795    -0.05600
N921        N  0.18760187  0.57925684  0.66482894    -0.58400
N922        N  0.20476358  0.56791228  0.63581731    -0.06900
N923        N  0.18686376  0.54113549  0.64067213    -0.61200
N924        N  0.27807564  0.58567981  0.65038706    -0.05900
N925        N  0.29540835  0.57204152  0.66471359    -0.58400
Mn926      Mn  0.24066137  0.57016102  0.61218136     1.20200
Mn927      Mn  0.24361948  0.62930835  0.65274348     1.10100
Cl928      Cl  0.24331683  0.63563757  0.61583288    -0.86400
C929        C  0.30511902  0.54116918  0.65772492     0.95900
C930        C  0.17615731  0.54848532  0.65882984     0.95700
N931        N  0.29179051  0.00529776  0.00143126    -0.37000
N932        N  0.24626155  0.51563845  0.97010854    -0.57600
N933        N  0.19537923  0.50196929  0.99779968    -0.37000
N934        N  0.24064945  0.99314293  0.02978438    -0.57600
C935        C  0.31116429  0.51886316  0.98755987     0.26500
C936        C  0.30830790  0.00532125  0.01850443     0.26500
C937        C  0.17877625  0.51550639  0.98253520     0.26500
C938        C  0.17612823  0.00340079  0.01366022     0.26500
C939        C  0.27335606  0.51525143  0.95940817     0.35200
C940        C  0.22145062  0.51272640  0.95744917     0.35200
C941        C  0.26599170  0.98139988  0.04027058     0.35200
C942        C  0.21405413  0.98007871  0.03828747     0.35200
C943        C  0.34021082  0.52800543  0.99603305    -0.22300
C944        C  0.33853929  0.01920393  0.01546389    -0.22300
C945        C  0.14872719  0.52594199  0.98880000    -0.22300
C946        C  0.14706277  0.01824345  0.00844215    -0.22300
C947        C  0.26574557  0.51229675  0.93974783    -0.23400
C948        C  0.23277376  0.51060389  0.93850796    -0.23400
C949        C  0.25542942  0.96159729  0.05587898    -0.23400
C950        C  0.22245605  0.96058668  0.05454812    -0.23400
C951        C  0.30455946  0.52005211  0.96718885    -0.18700
C952        C  0.29846448  0.98871533  0.03595766    -0.18700
C953        C  0.18238748  0.98691902  0.03179305    -0.18700
C954        C  0.18888189  0.51569775  0.96279707    -0.18700
H955        H  0.36097090  0.53874716  0.98880995     0.14200
H956        H  0.35779818  0.02176287  0.02602186     0.14200
H957        H  0.12961256  0.53705356  0.98004088     0.14200
H958        H  0.12638231  0.02194222  0.01766700     0.14200
H959        H  0.28218457  0.51199157  0.92758484     0.12500
H960        H  0.21871733  0.50896664  0.92519846     0.12500
H961        H  0.26997380  0.94893700  0.06693213     0.12500
H962        H  0.20652720  0.94712369  0.06440000     0.12500
H963        H  0.27057455  0.99198092  0.99895888     0.25700
H964        H  0.21653354  0.98789327  0.99687033     0.25700
N965        N  0.19988972  0.75085317  0.00099300    -0.37000
N966        N  0.25076888  0.74011083  0.97320019    -0.57600
N967        N  0.29585385  0.75120797  0.00532662    -0.37000
N968        N  0.24503722  0.76309387  0.03249796    -0.57600
C969        C  0.18371874  0.75127324  0.98380568     0.26500
C970        C  0.18048691  0.76501476  0.01451910     0.26500
C971        C  0.31520945  0.75275584  0.98958270     0.26500
C972        C  0.31228476  0.76479385  0.02057024     0.26500
C973        C  0.22600800  0.72710883  0.96275313     0.35200
C974        C  0.27786258  0.72813525  0.96496602     0.35200
C975        C  0.21777754  0.76193543  0.04294471     0.35200
C976        C  0.26955241  0.76114584  0.04542780     0.35200
C977        C  0.15378252  0.76602282  0.98638187    -0.22300
C978        C  0.15178907  0.77486869  0.00576048    -0.22300
C979        C  0.34417476  0.76777065  0.99480623    -0.22300
C980        C  0.34229863  0.77548289  0.01435537    -0.22300
C981        C  0.23736246  0.70741446  0.94746513    -0.23400
C982        C  0.27036787  0.70811391  0.94884735    -0.23400
C983        C  0.22492347  0.75957909  0.06271363    -0.23400
C984        C  0.25786629  0.75887047  0.06428488    -0.23400
C985        C  0.19345212  0.73399888  0.96673092    -0.18700
C986        C  0.18682994  0.76619326  0.03483837    -0.18700
C987        C  0.30210033  0.76456953  0.04027521    -0.18700
C988        C  0.30912299  0.73635532  0.97153417    -0.18700
H989        H  0.13494155  0.76899932  0.97554968     0.14200
H990        H  0.13110742  0.78614581  0.01273947     0.14200
H991        H  0.36491769  0.77160981  0.98562857     0.14200
H992        H  0.36126838  0.78666208  0.02313716     0.14200
H993        H  0.22335518  0.69404433  0.93650772     0.12500
H994        H  0.28692186  0.69533163  0.93916476     0.12500
H995        H  0.20817738  0.75905013  0.07472052     0.12500
H996        H  0.27162352  0.75780254  0.07773561     0.12500
H997        H  0.22052878  0.73700112  0.00385638     0.25700
H998        H  0.27503669  0.73689384  0.00624573     0.25700
N999        N  0.46157206  0.68818150  0.90892835    -0.06600
N1000       N  0.43718303  0.70853291  0.91343011    -0.58700
N1001       N  0.53591286  0.65994651  0.91986783    -0.06200
N1002       N  0.06133777  0.66019400  0.93130954    -0.60800
N1003       N  0.53646168  0.68625629  0.90775602    -0.05800
N1004       N  0.06254929  0.70494647  0.91101630    -0.58700
N1005       N  0.46245932  0.66183452  0.92099649    -0.05500
N1006       N  0.43896223  0.66361158  0.93359174    -0.61200
C1007       C  0.42314864  0.69283264  0.92904405     0.95600
C1008       C  0.07808510  0.68833085  0.92588467     0.95400
N1009       N  0.53329816  0.55790042  0.90306065    -0.06700
N1010       N  0.05898736  0.53782984  0.90404032    -0.59300
N1011       N  0.45992539  0.58250388  0.91828937    -0.04900
N1012       N  0.43544542  0.57945971  0.93024575    -0.60500
N1013       N  0.45792790  0.55990135  0.90409928    -0.06800
N1014       N  0.43174039  0.54083186  0.90619068    -0.59500
N1015       N  0.53395832  0.58051482  0.91725604    -0.04500
N1016       N  0.05978550  0.57642851  0.92819915    -0.60600
Mn1017     Mn  0.49809586  0.62114888  0.91958700     1.18400
C1018       C  0.07516432  0.54971468  0.91989889     0.97700
C1019       C  0.41804929  0.55338888  0.92265798     0.98400
N1020       N  0.03291549  0.69399821  0.86134897    -0.06800
N1021       N  0.05010535  0.72117547  0.85631575    -0.63100
N1022       N  0.45909319  0.67216088  0.84814035    -0.05600
N1023       N  0.44032825  0.68313750  0.83383321    -0.63800
N1024       N  0.46057085  0.69524309  0.86216567    -0.06300
N1025       N  0.44315447  0.72246899  0.85733167    -0.63400
N1026       N  0.03164301  0.67184865  0.84683137    -0.05200
N1027       N  0.04782921  0.68394827  0.83174140    -0.64100
Mn1028     Mn  0.49787509  0.69200723  0.88529603     1.10700
C1029       C  0.05947849  0.71467488  0.83781853     0.98900
C1030       C  0.43052425  0.71463404  0.83960507     0.99000
N1031       N  0.45763915  0.56450696  0.85763678    -0.06300
N1032       N  0.43765772  0.54018972  0.85183521    -0.61700
N1033       N  0.03061873  0.58881308  0.84441171    -0.05600
N1034       N  0.04957700  0.58111179  0.82967448    -0.58400
N1035       N  0.03063360  0.56348345  0.85728224    -0.06900
N1036       N  0.04986099  0.53855884  0.85162443    -0.61200
N1037       N  0.45748138  0.59025259  0.84505185    -0.05900
N1038       N  0.43717659  0.58384211  0.83062242    -0.58400
Mn1039     Mn  0.49475649  0.56034373  0.88061901     1.20200
Mn1040     Mn  0.49476448  0.63069635  0.84582771     1.10100
Cl1041     Cl  0.49634935  0.62610986  0.88273081    -0.86400
C1042       C  0.42474700  0.55251065  0.83497703     0.95900
C1043       C  0.06178552  0.54976854  0.83440785     0.95700
N1044       N  0.09251517  0.88303609  0.77396374    -0.37000
N1045       N  0.10420691  0.82936090  0.74650730    -0.57600
N1046       N  0.12476221  0.87979479  0.71770815    -0.37000
N1047       N  0.11297238  0.93378320  0.74536706    -0.57600
C1048       C  0.09318375  0.85516049  0.78592540     0.26500
C1049       C  0.09701794  0.91115695  0.78518514     0.26500
C1050       C  0.13705085  0.85041973  0.71032230     0.26500
C1051       C  0.14058906  0.90648160  0.70938493     0.26500
C1052       C  0.08831156  0.81111550  0.76021329     0.35200
C1053       C  0.10589869  0.80929523  0.73053766     0.35200
C1054       C  0.09963240  0.95470304  0.75870231     0.35200
C1055       C  0.11666697  0.95290318  0.72902207     0.35200
C1056       C  0.09828347  0.86573564  0.80501967    -0.22300
C1057       C  0.10043257  0.90120737  0.80456418    -0.22300
C1058       C  0.16090059  0.85853846  0.69701570    -0.22300
C1059       C  0.16303313  0.89401848  0.69636791    -0.22300
C1060       C  0.07912188  0.77943806  0.75276723    -0.23400
C1061       C  0.09047228  0.77820468  0.73393794    -0.23400
C1062       C  0.09473467  0.98728385  0.75082983    -0.23400
C1063       C  0.10558702  0.98614181  0.73194909    -0.23400
C1064       C  0.08670165  0.82091720  0.78003412    -0.18700
C1065       C  0.09504767  0.94552767  0.77840519    -0.18700
C1066       C  0.13358422  0.94168001  0.71249201    -0.18700
C1067       C  0.12557798  0.81677896  0.71436757    -0.18700
H1068       H  0.09949531  0.84965637  0.81797093     0.14200
H1069       H  0.10367467  0.91782515  0.81707020     0.14200
H1070       H  0.17495080  0.84077766  0.68844431     0.14200
H1071       H  0.17906812  0.90893724  0.68727371     0.14200
H1072       H  0.06706595  0.75875493  0.76043448     0.12500
H1073       H  0.08888408  0.75639148  0.72419165     0.12500
H1074       H  0.08518359  0.50974569  0.75809493     0.12500
H1075       H  0.10613580  0.50753265  0.72174169     0.12500
H1076       H  0.08520934  0.88338095  0.75939325     0.25700
H1077       H  0.10429552  0.88163460  0.72626010     0.25700
N1078       N  0.36962206  0.82777695  0.75243462    -0.37000
N1079       N  0.38044051  0.88357663  0.77950573    -0.57600
N1080       N  0.36159471  0.93197732  0.74895783    -0.37000
N1081       N  0.35001187  0.87605364  0.72230072    -0.57600
C1082       C  0.37144483  0.81089042  0.76971117     0.26500
C1083       C  0.35469573  0.80657114  0.73970758     0.26500
C1084       C  0.36162848  0.95253803  0.76488015     0.26500
C1085       C  0.34544427  0.94869251  0.73450920     0.26500
C1086       C  0.39533218  0.85768514  0.78923396     0.35200
C1087       C  0.39096349  0.91322120  0.78752323     0.35200
C1088       C  0.35166283  0.84696535  0.71161200     0.35200
C1089       C  0.34767780  0.90258200  0.70950959     0.35200
C1090       C  0.35748100  0.77861817  0.76798867    -0.22300
C1091       C  0.34680329  0.77591125  0.74900762    -0.22300
C1092       C  0.34517607  0.98271880  0.76053387    -0.22300
C1093       C  0.33498602  0.98030520  0.74136212    -0.22300
C1094       C  0.41532680  0.87081400  0.80360510    -0.23400
C1095       C  0.41256805  0.90612098  0.80252438    -0.23400
C1096       C  0.35031950  0.85498233  0.69186792    -0.23400
C1097       C  0.34788122  0.89029403  0.69052920    -0.23400
C1098       C  0.38875424  0.82246362  0.78618191    -0.18700
C1099       C  0.35032525  0.81332114  0.71959894    -0.18700
C1100       C  0.34237071  0.93726148  0.71490630    -0.18700
C1101       C  0.37942351  0.94631890  0.78230536    -0.18700
H1102       H  0.35589854  0.75879477  0.77912583     0.14200
H1103       H  0.33524060  0.75361175  0.74266004     0.14200
H1104       H  0.34178646  0.50466722  0.77000335     0.14200
H1105       H  0.32206988  0.49996262  0.73324212     0.14200
H1106       H  0.42989388  0.85644879  0.81395576     0.12500
H1107       H  0.42472427  0.92442425  0.81187049     0.12500
H1108       H  0.35018337  0.83718306  0.67974803     0.12500
H1109       H  0.34558932  0.90512066  0.67715595     0.12500
H1110       H  0.38171771  0.85039476  0.74888063     0.25700
H1111       H  0.37563860  0.91008460  0.74725108     0.25700
N1112       N  0.10857746  0.62304335  0.22275213    -0.37000
N1113       N  0.11747641  0.67245557  0.25394314    -0.57600
N1114       N  0.12584223  0.61622720  0.28150880    -0.37000
N1115       N  0.11513845  0.56651408  0.25101159    -0.57600
C1116       C  0.09909395  0.65248046  0.21359684     0.26500
C1117       C  0.09876606  0.59624341  0.21162566     0.26500
C1118       C  0.12391029  0.64316956  0.29383059     0.26500
C1119       C  0.12240813  0.58725319  0.29230447     0.26500
C1120       C  0.11777400  0.69432223  0.23856936     0.35200
C1121       C  0.12852815  0.69044131  0.26937016     0.35200
C1122       C  0.11385075  0.54789258  0.23439942     0.35200
C1123       C  0.12511153  0.54481425  0.26536994     0.35200
C1124       C  0.08379446  0.64434569  0.19622238    -0.22300
C1125       C  0.08410224  0.60904968  0.19478964    -0.22300
C1126       C  0.11905827  0.63129711  0.31271310    -0.22300
C1127       C  0.11794724  0.59590195  0.31173995    -0.22300
C1128       C  0.12872547  0.72647275  0.24426220    -0.23400
C1129       C  0.13571801  0.72397752  0.26380881    -0.23400
C1130       C  0.12219065  0.51392650  0.23841017    -0.23400
C1131       C  0.13014394  0.51222101  0.25786369    -0.23400
C1132       C  0.10528432  0.68658353  0.21994562    -0.18700
C1133       C  0.10327336  0.56059357  0.21596835    -0.18700
C1134       C  0.12731975  0.55342272  0.28540680    -0.18700
C1135       C  0.12982710  0.67779126  0.28868844    -0.18700
H1136       H  0.07389737  0.66201560  0.18548210     0.14200
H1137       H  0.07443927  0.59463611  0.18262743     0.14200
H1138       H  0.11741514  0.64651656  0.32587276     0.14200
H1139       H  0.11540758  0.57845937  0.32402564     0.14200
H1140       H  0.13092866  0.74943653  0.23532444     0.12500
H1141       H  0.14434938  0.74471025  0.27295910     0.12500
H1142       H  0.12290889  0.99244604  0.22841548     0.12500
H1143       H  0.13813906  0.98933413  0.26562798     0.12500
H1144       H  0.12337177  0.62132061  0.23494551     0.25700
H1145       H  0.13420421  0.61739149  0.26727581     0.25700
N1146       N  0.34365772  0.56766970  0.24443938    -0.37000
N1147       N  0.33617376  0.62135979  0.27404476    -0.57600
N1148       N  0.35569515  0.67256807  0.24568601    -0.37000
N1149       N  0.36537930  0.61932001  0.21655862    -0.57600
C1150       C  0.34001680  0.54837227  0.26084361     0.26500
C1151       C  0.35600532  0.54682930  0.23054052     0.26500
C1152       C  0.35626097  0.69127847  0.26230949     0.26500
C1153       C  0.37251820  0.69040916  0.23220232     0.26500
C1154       C  0.32235734  0.59467349  0.28349352     0.35200
C1155       C  0.32778528  0.65007736  0.28384815     0.35200
C1156       C  0.36644488  0.59145917  0.20477242     0.35200
C1157       C  0.37135004  0.64729622  0.20525838     0.35200
C1158       C  0.34914804  0.51470609  0.25715567    -0.22300
C1159       C  0.35890651  0.51363830  0.23806275    -0.22300
C1160       C  0.37346639  0.72136201  0.25936338    -0.22300
C1161       C  0.38379488  0.72081070  0.24037313    -0.22300
C1162       C  0.30537815  0.60641362  0.29948148    -0.23400
C1163       C  0.30871815  0.64161672  0.29965919    -0.23400
C1164       C  0.37310009  0.60185753  0.18581289    -0.23400
C1165       C  0.37587640  0.63721524  0.18608591    -0.23400
C1166       C  0.32699476  0.55967500  0.27878635    -0.18700
C1167       C  0.36532352  0.55670704  0.21133468    -0.18700
C1168       C  0.37648115  0.68112601  0.21240923    -0.18700
C1169       C  0.33909014  0.68347935  0.27946399    -0.18700
H1170       H  0.34842048  0.99299629  0.26711333     0.14200
H1171       H  0.36722231  0.99086719  0.23061666     0.14200
H1172       H  0.37766153  0.74185384  0.26973690     0.14200
H1173       H  0.39767020  0.74083176  0.23331808     0.14200
H1174       H  0.29225373  0.59115453  0.31002255     0.12500
H1175       H  0.29874388  0.65891578  0.31037933     0.12500
H1176       H  0.37650021  0.58562981  0.17319133     0.12500
H1177       H  0.38196796  0.65347031  0.17376037     0.12500
H1178       H  0.33588148  0.59281097  0.24248528     0.25700
H1179       H  0.34125714  0.65133619  0.24298410     0.25700
N1180       N  0.45930033  0.80280623  0.09813691    -0.06600
N1181       N  0.43423752  0.78185036  0.09744688    -0.58700
N1182       N  0.53132304  0.82977980  0.08268559    -0.06200
N1183       N  0.05559375  0.82728501  0.07055045    -0.60800
N1184       N  0.53413797  0.80710324  0.09692710    -0.05800
N1185       N  0.06052832  0.78857677  0.09473036    -0.58700
N1186       N  0.45727151  0.82611096  0.08419036    -0.05500
N1187       N  0.43102211  0.82152610  0.07369239    -0.61200
C1188       C  0.41695903  0.79373575  0.08198741     0.95600
C1189       C  0.07361731  0.80152411  0.07815682     0.95400
N1190       N  0.52812828  0.93505412  0.09284175    -0.06700
N1191       N  0.05255640  0.95579322  0.08881589    -0.59300
N1192       N  0.45390878  0.90673925  0.08182558    -0.04900
N1193       N  0.42884271  0.90895134  0.07005069    -0.60500
N1194       N  0.45329355  0.93169608  0.09468036    -0.06800
N1195       N  0.42748764  0.95098618  0.09191155    -0.59500
N1196       N  0.52777278  0.90922107  0.08055825    -0.04500
N1197       N  0.05185367  0.91158010  0.06834711    -0.60600
Mn1198     Mn  0.49240485  0.86789786  0.08174148     1.18400
C1199       C  0.06725019  0.94085053  0.07328500     0.97700
C1200       C  0.41218437  0.93660705  0.07639769     0.98400
N1201       N  0.03516431  0.80935879  0.14350794    -0.06800
N1202       N  0.05477227  0.78463401  0.14946250    -0.63100
N1203       N  0.46138777  0.83018654  0.15695111    -0.05600
N1204       N  0.44093091  0.82093119  0.17076576    -0.63800
N1205       N  0.46210087  0.80637125  0.14334092    -0.06300
N1206       N  0.44188067  0.78132260  0.14730157    -0.63400
N1207       N  0.03468083  0.83439866  0.15641299    -0.05200
N1208       N  0.05406257  0.82703860  0.17120562    -0.64100
Mn1209     Mn  0.49798707  0.80551121  0.12037446     1.10700
C1210       C  0.06662083  0.79590232  0.16676049     0.98900
C1211       C  0.42856881  0.79051173  0.16437269     0.99000
N1212       N  0.45692367  0.93663025  0.14099122    -0.06300
N1213       N  0.43639818  0.96126741  0.14550022    -0.61700
N1214       N  0.03149596  0.91712044  0.15365358    -0.05600
N1215       N  0.05204565  0.92820248  0.16700173    -0.58400
N1216       N  0.03001556  0.93932632  0.13905009    -0.06900
N1217       N  0.04961781  0.96543840  0.14217209    -0.61200
N1218       N  0.45841228  0.91357478  0.15517880    -0.05900
N1219       N  0.43904754  0.92231912  0.16954330    -0.58400
Mn1220     Mn  0.49202364  0.93673511  0.11674471     1.20200
Mn1221     Mn  0.49648353  0.87386910  0.15603938     1.10100
Cl1222     Cl  0.49474655  0.87105182  0.11881731    -0.86400
C1223       C  0.42508185  0.95190614  0.16325671     0.95900
C1224       C  0.06353898  0.95825491  0.15960922     0.95700
C1225       C  0.37774712  0.48881648  0.17155483    -0.02300
C1226       C  0.40868229  0.97667471  0.17634247     0.07400
C1227       C  0.42450386  0.98983464  0.19302918    -0.02400
C1228       C  0.41113884  0.51747977  0.20338990    -0.02400
C1229       C  0.38007018  0.52954432  0.19872653     0.07500
C1230       C  0.36301156  0.51436021  0.18309730    -0.02600
Br1231     Br  0.31935428  0.52794156  0.17780429    -0.01100
Br1232     Br  0.35494755  0.96891317  0.14971081    -0.01200
Br1233     Br  0.43531189  0.53887873  0.22426369    -0.01200
Br1234     Br  0.46404013  0.96970847  0.20241737    -0.01200
C1235       C  0.43529362  0.73665850  0.18412639    -0.02300
C1236       C  0.41531291  0.76377731  0.17749507     0.07400
C1237       C  0.38228037  0.76291955  0.18159685    -0.02400
C1238       C  0.36925306  0.73492917  0.19212121    -0.02400
C1239       C  0.38938991  0.70821363  0.19905793     0.07500
C1240       C  0.42252118  0.70951529  0.19530733    -0.02600
Br1241     Br  0.45066557  0.67486134  0.20629746    -0.01100
Br1242     Br  0.48031084  0.73620335  0.17778364    -0.01200
Br1243     Br  0.32383912  0.73301400  0.19715557    -0.01200
Br1244     Br  0.35491378  0.79974114  0.17242900    -0.01200
C1245       C  0.10725768  0.98927465  0.17775334    -0.02300
C1246       C  0.07465035  0.98612734  0.17262559     0.07400
C1247       C  0.05212908  0.00903292  0.18063323    -0.02400
C1248       C  0.06103573  0.53081434  0.19595307    -0.02400
C1249       C  0.09374413  0.53491772  0.20080373     0.07500
C1250       C  0.11698953  0.51507604  0.19095861    -0.02600
Br1251     Br  0.16207295  0.52326067  0.19548558    -0.01100
Br1252     Br  0.13833430  0.95895139  0.16621857    -0.01200
Br1253     Br  0.02819499  0.55395362  0.21074914    -0.01200
Br1254     Br  0.50987606  0.01355520  0.16931542    -0.01200
C1255       C  0.10625458  0.75123315  0.17780366    -0.02300
C1256       C  0.07878773  0.77121255  0.18177029     0.07400
C1257       C  0.06138964  0.76482232  0.19913871    -0.02400
C1258       C  0.06963588  0.73665398  0.21123273    -0.02400
C1259       C  0.09651246  0.71609251  0.20686004     0.07500
C1260       C  0.11540755  0.72418098  0.19049123    -0.02600
Br1261     Br  0.15404216  0.69830794  0.18569085    -0.01100
Br1262     Br  0.13215746  0.76190035  0.15534187    -0.01200
Br1263     Br  0.04328106  0.72528872  0.23349809    -0.01200
Br1264     Br  0.02596449  0.79385318  0.20672997    -0.01200
C1265       C  0.10238128  0.02129485  0.81312774    -0.02300
C1266       C  0.07037626  0.52475710  0.81920985     0.07400
C1267       C  0.04641582  0.50308827  0.81134800    -0.02400
C1268       C  0.05456716  0.47760396  0.79780373    -0.02400
C1269       C  0.08680473  0.97299034  0.79246986     0.07500
C1270       C  0.11069870  0.99511662  0.79992344    -0.02600
Br1271     Br  0.15470750  0.98919522  0.79213246    -0.01100
Br1272     Br  0.13462072  0.05241324  0.82293697    -0.01200
Br1273     Br  0.02148031  0.44948628  0.78606223    -0.01200
Br1274     Br  0.00223442  0.50824777  0.81897758    -0.01200
C1275       C  0.10185783  0.76684331  0.79862149    -0.02300
C1276       C  0.07990704  0.79404170  0.79523992     0.07400
C1277       C  0.05156924  0.79563992  0.80636719    -0.02400
C1278       C  0.04537617  0.77045599  0.82078105    -0.02400
C1279       C  0.06692928  0.74267032  0.82370239     0.07500
C1280       C  0.09493726  0.74081757  0.81239484    -0.02600
Br1281     Br  0.12413986  0.70269593  0.81600934    -0.01100
Br1282     Br  0.14211750  0.76574015  0.78493189    -0.01200
Br1283     Br  0.50646717  0.77370952  0.83581468    -0.01200
Br1284     Br  0.02056029  0.83176505  0.80145407    -0.01200
C1285       C  0.38651239  0.50472287  0.82683443    -0.02300
C1286       C  0.40932878  0.52919399  0.82040449     0.07400
C1287       C  0.41969059  0.52821486  0.80069209    -0.02400
C1288       C  0.41019397  0.00084422  0.78848579    -0.02400
C1289       C  0.38800334  0.97609176  0.79510196     0.07500
C1290       C  0.37546714  0.97873523  0.81412906    -0.02600
Br1291     Br  0.34370269  0.94611259  0.82300210    -0.01100
Br1292     Br  0.36971921  0.50703881  0.85305148    -0.01200
Br1293     Br  0.43002783  0.99530822  0.76323136    -0.01200
Br1294     Br  0.44772706  0.56298280  0.78986685    -0.01200
C1295       C  0.39591530  0.76548118  0.83145745    -0.02300
C1296       C  0.41962610  0.74174808  0.82565331     0.07400
C1297       C  0.43389623  0.74541361  0.80697867    -0.02400
C1298       C  0.42467189  0.77275844  0.79457287    -0.02400
C1299       C  0.40067409  0.79607810  0.80036283     0.07500
C1300       C  0.38641077  0.79246855  0.81885818    -0.02600
Br1301     Br  0.35308604  0.82390370  0.82671483    -0.01100
Br1302     Br  0.37492415  0.75990394  0.85629079    -0.01200
Br1303     Br  0.44547910  0.77891143  0.76960886    -0.01200
Br1304     Br  0.46696099  0.71434749  0.79804164    -0.01200
C1305       C  0.12740981  0.81694398  0.06485380    -0.02300
C1306       C  0.10487982  0.79122715  0.06984618     0.07400
C1307       C  0.11113804  0.75653428  0.06503198    -0.02400
C1308       C  0.13872683  0.74809969  0.05426094    -0.02400
C1309       C  0.15979652  0.77430323  0.04807436     0.07500
C1310       C  0.15430232  0.80865437  0.05356705    -0.02600
Br1311     Br  0.18282942  0.84461058  0.04468892    -0.01100
Br1312     Br  0.12255587  0.86336526  0.07430899    -0.01200
Br1313     Br  0.14734144  0.70087250  0.04732435    -0.01200
Br1314     Br  0.08122707  0.72075228  0.07210076    -0.01200
C1315       C  0.34966669  0.74225188  0.05910107    -0.02300
C1316       C  0.32715366  0.76885230  0.05576151     0.07400
C1317       C  0.33127109  0.80080588  0.06516647    -0.02400
C1318       C  0.35924352  0.80702730  0.07621039    -0.02400
C1319       C  0.38414664  0.78248302  0.07664884     0.07500
C1320       C  0.37850493  0.74923697  0.06919749    -0.02600
Br1321     Br  0.41094654  0.71408095  0.07160357    -0.01100
Br1322     Br  0.34138920  0.69679385  0.04895404    -0.01200
Br1323     Br  0.36338509  0.84870797  0.09129269    -0.01200
Br1324     Br  0.30005866  0.83700864  0.06169527    -0.01200
C1325       C  0.12841994  0.72624931  0.92757302    -0.02300
C1326       C  0.10958241  0.69864375  0.93521327     0.07400
C1327       C  0.12143824  0.68071671  0.95213544    -0.02400
C1328       C  0.15050004  0.69067127  0.96103661    -0.02400
C1329       C  0.16748469  0.71943217  0.95415063     0.07500
C1330       C  0.15681626  0.73678424  0.93726395    -0.02600
Br1331     Br  0.18085183  0.77604854  0.92799490    -0.01100
Br1332     Br  0.11654046  0.75075752  0.90395299    -0.01200
Br1333     Br  0.16717418  0.66549685  0.98345409    -0.01200
Br1334     Br  0.09859580  0.64334020  0.96485789    -0.01200
C1335       C  0.38348957  0.68665036  0.95706295    -0.02300
C1336       C  0.39373245  0.70461715  0.93984846     0.07400
C1337       C  0.37511638  0.73328828  0.93326147    -0.02400
C1338       C  0.34734912  0.74336772  0.94347744    -0.02400
C1339       C  0.33733900  0.72486801  0.96003122     0.07500
C1340       C  0.35527026  0.69650934  0.96670032    -0.02600
Br1341     Br  0.34078454  0.67112452  0.98948077    -0.01100
Br1342     Br  0.40729884  0.64895106  0.96902715    -0.01200
Br1343     Br  0.32311205  0.78342777  0.93530693    -0.01200
Br1344     Br  0.38648432  0.75996834  0.91045615    -0.01200
C1345       C  0.14594398  0.98897728  0.06140023    -0.02300
C1346       C  0.15415185  0.97428329  0.04331321     0.07400
C1347       C  0.13405116  0.94893079  0.03515568    -0.02400
C1348       C  0.10515029  0.93962219  0.04430274    -0.02400
C1349       C  0.09694726  0.95342398  0.06292286     0.07500
C1350       C  0.11805530  0.97810178  0.07142404    -0.02600
Br1351     Br  0.11014321  0.99738319  0.09691243    -0.01100
Br1352     Br  0.17262554  0.02495294  0.07217391    -0.01200
Br1353     Br  0.07690911  0.90929294  0.02972470    -0.01200
Br1354     Br  0.14645075  0.92640699  0.01114442    -0.01200
C1355       C  0.33999135  0.99437250  0.06270708    -0.02300
C1356       C  0.32432491  0.97407527  0.04866574     0.07400
C1357       C  0.33574082  0.94089709  0.04462531    -0.02400
C1358       C  0.36427092  0.92873636  0.05335989    -0.02400
C1359       C  0.38116078  0.94926387  0.06734549     0.07500
C1360       C  0.36804154  0.98215969  0.07218851    -0.02600
Br1361     Br  0.38803795  0.51247385  0.09090582    -0.01100
Br1362     Br  0.32302779  0.53951765  0.06823821    -0.01200
Br1363     Br  0.37937174  0.88429808  0.04453098    -0.01200
Br1364     Br  0.31212852  0.91245348  0.02632149    -0.01200
C1365       C  0.11227675  0.50438367  0.93331991    -0.02300
C1366       C  0.10737465  0.53828502  0.92644530     0.07400
C1367       C  0.13214681  0.56284042  0.92841811    -0.02400
C1368       C  0.16010499  0.55474999  0.93911235    -0.02400
C1369       C  0.16383320  0.52168802  0.94745331     0.07500
C1370       C  0.14067414  0.49599994  0.94359613    -0.02600
Br1371     Br  0.14716300  0.94977946  0.95344316    -0.01100
Br1372     Br  0.07884174  0.97034426  0.93040461    -0.01200
Br1373     Br  0.19206553  0.58987067  0.94361491    -0.01200
Br1374     Br  0.12770216  0.60782265  0.91653926    -0.01200
C1375       C  0.36252006  0.56778777  0.93362675    -0.02300
C1376       C  0.38665023  0.54275934  0.93088790     0.07400
C1377       C  0.38225929  0.50926264  0.93850794    -0.02400
C1378       C  0.35495221  0.50154094  0.94982931    -0.02400
C1379       C  0.33177093  0.52721256  0.95353868     0.07500
C1380       C  0.33543548  0.56022741  0.94510131    -0.02600
Br1381     Br  0.30431899  0.59583108  0.95022716    -0.01100
Br1382     Br  0.36622359  0.61239114  0.92119690    -0.01200
Br1383     Br  0.34980261  0.45610111  0.96095975    -0.01200
Br1384     Br  0.41450029  0.47448358  0.93438830    -0.01200
C1385       C  0.17069171  0.99038033  0.70392212    -0.02300
C1386       C  0.14550225  0.96815957  0.69844616     0.07400
C1387       C  0.13043736  0.97235064  0.68011467    -0.02400
C1388       C  0.14065650  0.49841655  0.66718388    -0.02400
C1389       C  0.16553859  0.52115908  0.67268838     0.07500
C1390       C  0.18070680  0.51681999  0.69119631    -0.02600
Br1391     Br  0.21656281  0.54522042  0.69926019    -0.01100
Br1392     Br  0.19151263  0.98446919  0.72906061    -0.01200
Br1393     Br  0.11949653  0.50365085  0.64217011    -0.01200
Br1394     Br  0.09460824  0.94330548  0.67318597    -0.01200
C1395       C  0.13757720  0.75781941  0.67084918    -0.02300
C1396       C  0.16118752  0.73479872  0.67810229     0.07400
C1397       C  0.17167613  0.73767172  0.69775532    -0.02400
C1398       C  0.16003246  0.76454591  0.70949071    -0.02400
C1399       C  0.13684938  0.78769739  0.70207833     0.07500
C1400       C  0.12518272  0.78384594  0.68288434    -0.02600
Br1401     Br  0.09246044  0.81470666  0.67305262    -0.01100
Br1402     Br  0.12180926  0.75375654  0.64434432    -0.01200
Br1403     Br  0.17766020  0.77131797  0.73535086    -0.01200
Br1404     Br  0.20343882  0.70672669  0.70872735    -0.01200
C1405       C  0.30203885  0.96216212  0.69093154    -0.02300
C1406       C  0.33303104  0.96279427  0.69938093     0.07400
C1407       C  0.35545789  0.98746997  0.69284837    -0.02400
C1408       C  0.34647633  0.51251527  0.67885747    -0.02400
C1409       C  0.31527817  0.51261813  0.67089462     0.07500
C1410       C  0.29344337  0.48648248  0.67640376    -0.02600
Br1411     Br  0.25169036  0.48370499  0.66414640    -0.01100
Br1412     Br  0.27098243  0.92866470  0.69971742    -0.01200
Br1413     Br  0.37721376  0.54610427  0.66992289    -0.01200
Br1414     Br  0.39884275  0.98636342  0.70275433    -0.01200
C1415       C  0.35333949  0.73197485  0.68865726    -0.02300
C1416       C  0.32223073  0.73199083  0.68058867     0.07400
C1417       C  0.29972503  0.75696131  0.68658587    -0.02400
C1418       C  0.30863681  0.78220699  0.70017293    -0.02400
C1419       C  0.34064768  0.78436423  0.70667922     0.07500
C1420       C  0.36292604  0.75881539  0.70120127    -0.02600
Br1421     Br  0.40663921  0.76107514  0.71046293    -0.01100
Br1422     Br  0.38262499  0.69527976  0.68237313    -0.01200
Br1423     Br  0.27671961  0.81315435  0.71051484    -0.01200
Br1424     Br  0.25651655  0.75702227  0.67630217    -0.01200
C1425       C  0.17584610  0.50367385  0.32343520    -0.02300
C1426       C  0.15574486  0.97505060  0.32714694     0.07400
C1427       C  0.12602598  0.97251410  0.31741595    -0.02400
C1428       C  0.11618714  0.99855161  0.30426256    -0.02400
C1429       C  0.13676363  0.52629274  0.29991600     0.07500
C1430       C  0.16681166  0.52858647  0.30945938    -0.02600
Br1431     Br  0.19617669  0.56556899  0.30308712    -0.01100
Br1432     Br  0.21624232  0.50919269  0.33710464    -0.01200
Br1433     Br  0.07391120  0.99671666  0.29271663    -0.01200
Br1434     Br  0.09840175  0.93374373  0.32268007    -0.01200
C1435       C  0.11646483  0.72438454  0.31241614    -0.02300
C1436       C  0.13930236  0.70211130  0.30420253     0.07400
C1437       C  0.17191501  0.70498563  0.30927958    -0.02400
C1438       C  0.18199253  0.73150528  0.32168689    -0.02400
C1439       C  0.15921680  0.75439333  0.32957666     0.07500
C1440       C  0.12641728  0.75019101  0.32542380    -0.02600
Br1441     Br  0.09532141  0.77926007  0.33794916    -0.01100
Br1442     Br  0.07179728  0.71966152  0.30554982    -0.01200
Br1443     Br  0.22714254  0.73666385  0.32739794    -0.01200
Br1444     Br  0.20279370  0.67288587  0.29887756    -0.01200
C1445       C  0.28314013  0.98545699  0.30335669    -0.02300
C1446       C  0.30178910  0.98066525  0.32056169     0.07400
C1447       C  0.32800725  0.50272227  0.32429720    -0.02400
C1448       C  0.33662153  0.52811607  0.31054289    -0.02400
C1449       C  0.31787875  0.53306419  0.29352922     0.07500
C1450       C  0.29070712  0.51232353  0.29025116    -0.02600
Br1451     Br  0.26310701  0.52184845  0.26807154    -0.01100
Br1452     Br  0.24651403  0.95659660  0.29764268    -0.01200
Br1453     Br  0.37460003  0.55556867  0.31478893    -0.01200
Br1454     Br  0.35264865  0.49770143  0.34812944    -0.01200
C1455       C  0.30027157  0.76335919  0.30080761    -0.02300
C1456       C  0.31588197  0.76569094  0.31928187     0.07400
C1457       C  0.34061202  0.74204053  0.32397397    -0.02400
C1458       C  0.34854453  0.71545966  0.31091967    -0.02400
C1459       C  0.33177414  0.71219197  0.29310732     0.07500
C1460       C  0.30804605  0.73645212  0.28796170    -0.02600
Br1461     Br  0.28523515  0.73180677  0.26340377    -0.01100
Br1462     Br  0.26705105  0.79531926  0.29273247    -0.01200
Br1463     Br  0.38254528  0.68349297  0.31729941    -0.01200
Br1464     Br  0.36465130  0.74670925  0.34803203    -0.01200
C1465       C  0.10150129  0.75986554  0.55218945    -0.02300
C1466       C  0.07742139  0.73431372  0.55124238     0.07400
C1467       C  0.07935198  0.70527000  0.56374402    -0.02400
C1468       C  0.10658831  0.70047964  0.57571254    -0.02400
C1469       C  0.13246636  0.72367283  0.57451240     0.07500
C1470       C  0.12918738  0.75429959  0.56363809    -0.02600
Br1471     Br  0.16372374  0.78729018  0.56335349    -0.01100
Br1472     Br  0.09735260  0.80158344  0.53690665    -0.01200
Br1473     Br  0.10925483  0.66148241  0.59331273    -0.01200
Br1474     Br  0.04626419  0.67048283  0.56335986    -0.01200
C1475       C  0.40504307  0.70033249  0.55764148    -0.02300
C1476       C  0.41048884  0.73330630  0.54965581     0.07400
C1477       C  0.38943242  0.76063258  0.55394071    -0.02400
C1478       C  0.36125207  0.75416618  0.56459057    -0.02400
C1479       C  0.35477838  0.72057458  0.57142523     0.07500
C1480       C  0.37779349  0.69434722  0.56907623    -0.02600
Br1481     Br  0.37215837  0.65029028  0.58180513    -0.01100
Br1482     Br  0.43330697  0.66259392  0.55142799    -0.01200
Br1483     Br  0.33050418  0.79055372  0.56845470    -0.01200
Br1484     Br  0.39844567  0.80628020  0.54413835    -0.01200
C1485       C  0.12724029  0.74342672  0.43305064    -0.02300
C1486       C  0.13602088  0.77863805  0.43217877     0.07400
C1487       C  0.11396068  0.80359884  0.43869743    -0.02400
C1488       C  0.08689113  0.79370198  0.44938844    -0.02400
C1489       C  0.07952748  0.75853628  0.45168873     0.07500
C1490       C  0.09833079  0.73363104  0.44217526    -0.02600
Br1491     Br  0.08446302  0.68623942  0.44206327    -0.01100
Br1492     Br  0.15491144  0.70826904  0.42269565    -0.01200
Br1493     Br  0.06041812  0.82856075  0.46132833    -0.01200
Br1494     Br  0.11838510  0.85108639  0.43110366    -0.01200
C1495       C  0.40357585  0.79862257  0.45080330    -0.02300
C1496       C  0.41117564  0.76334004  0.45087585     0.07400
C1497       C  0.39297348  0.74020741  0.43960552    -0.02400
C1498       C  0.36569320  0.75194774  0.42926951    -0.02400
C1499       C  0.35681414  0.78724618  0.43005452     0.07500
C1500       C  0.37701766  0.81073417  0.44011223    -0.02600
Br1501     Br  0.36976372  0.85997710  0.43904860    -0.01100
Br1502     Br  0.42897533  0.83024613  0.46626015    -0.01200
Br1503     Br  0.34009561  0.71855928  0.41529991    -0.01200
Br1504     Br  0.40458487  0.69204614  0.43944094    -0.01200
C1505       C  0.08740277  0.57938995  0.53819099    -0.02300
C1506       C  0.07753912  0.54487615  0.53870563     0.07400
C1507       C  0.09650077  0.52001574  0.54837622    -0.02400
C1508       C  0.12507551  0.52971355  0.55797960    -0.02400
C1509       C  0.13476772  0.56476208  0.55822052     0.07500
C1510       C  0.11605725  0.58938224  0.54754362    -0.02600
Br1511     Br  0.12931436  0.63667210  0.54392629    -0.01100
Br1512     Br  0.06223093  0.61238123  0.52330633    -0.01200
Br1513     Br  0.15238621  0.49369174  0.56840987    -0.01200
Br1514     Br  0.08382547  0.47214174  0.54750662    -0.01200
C1515       C  0.39051437  0.56690327  0.53594443    -0.02300
C1516       C  0.40818883  0.53916135  0.54365135     0.07400
C1517       C  0.39872366  0.52366414  0.56128359    -0.02400
C1518       C  0.37061218  0.53478423  0.57082912    -0.02400
C1519       C  0.35119956  0.56138129  0.56247774     0.07500
C1520       C  0.36216520  0.57792048  0.54501401    -0.02600
Br1521     Br  0.33930479  0.61529002  0.53209402    -0.01100
Br1522     Br  0.40546364  0.58962288  0.51240416    -0.01200
Br1523     Br  0.36030119  0.51326871  0.59553138    -0.01200
Br1524     Br  0.42431564  0.48658289  0.57200983    -0.01200
C1525       C  0.07660492  0.96615706  0.43384543    -0.02300
C1526       C  0.07015986  0.95745250  0.45341290     0.07400
C1527       C  0.09229770  0.93723518  0.46402972    -0.02400
C1528       C  0.12244276  0.92945429  0.45611772    -0.02400
C1529       C  0.12965709  0.93873234  0.43649743     0.07500
C1530       C  0.10568984  0.95588016  0.42516451    -0.02600
Br1531     Br  0.11125004  0.46516928  0.39759818    -0.01100
Br1532     Br  0.04615468  0.49376388  0.41922229    -0.01200
Br1533     Br  0.15388457  0.90856050  0.47342628    -0.01200
Br1534     Br  0.08148512  0.92153823  0.49006224    -0.01200
C1535       C  0.34166560  0.97868443  0.44802949    -0.02300
C1536       C  0.34480703  0.95887129  0.43109324     0.07400
C1537       C  0.37464825  0.95777437  0.42168484    -0.02400
C1538       C  0.40229077  0.97024666  0.43138137    -0.02400
C1539       C  0.40005931  0.98096215  0.45119133     0.07500
C1540       C  0.36918046  0.99243803  0.45697327    -0.02600
Br1541     Br  0.36419738  0.03284269  0.47310165    -0.01100
Br1542     Br  0.29970822  0.98851428  0.45829962    -0.01200
Br1543     Br  0.43870041  0.98250308  0.41547109    -0.01200
Br1544     Br  0.37712938  0.94065899  0.39534052    -0.01200
N1545       N  0.53683016  0.00505818  0.49529308    -0.37000
N1546       N  0.99199023  0.02472571  0.52494284    -0.57600
N1547       N  0.94152451  0.50461730  0.49809306    -0.37000
N1548       N  0.98675376  0.48567878  0.46760522    -0.57600
C1549       C  0.55651074  0.02330068  0.50715721     0.26500
C1550       C  0.55331011  0.49876536  0.47873899     0.26500
C1551       C  0.92642180  0.00447133  0.51557431     0.26500
C1552       C  0.92307415  0.48602198  0.48567921     0.26500
C1553       C  0.51858602  0.03606959  0.53413284     0.35200
C1554       C  0.96682814  0.03430702  0.53589690     0.35200
C1555       C  0.51144909  0.46656257  0.46101150     0.35200
C1556       C  0.95969564  0.47153726  0.46028921     0.35200
C1557       C  0.58550257  0.02909350  0.49784875    -0.22300
C1558       C  0.58341086  0.51378189  0.47988539    -0.22300
C1559       C  0.89888452  0.98464105  0.51444459    -0.22300
C1560       C  0.89726397  0.47212648  0.49570773    -0.22300
C1561       C  0.51033731  0.05276372  0.55124914    -0.23400
C1562       C  0.97733956  0.05211624  0.55220690    -0.23400
C1563       C  0.50013825  0.43934791  0.44995605    -0.23400
C1564       C  0.96714930  0.44196172  0.44995553    -0.23400
C1565       C  0.54986148  0.03369682  0.52650014    -0.18700
C1566       C  0.54392389  0.47494974  0.46428010    -0.18700
C1567       C  0.92854753  0.48248077  0.46536613    -0.18700
C1568       C  0.93488596  0.02486949  0.53182069    -0.18700
H1569       H  0.60633023  0.04243008  0.50352410     0.14200
H1570       H  0.60241466  0.51250083  0.46922043     0.14200
H1571       H  0.88163502  0.97999035  0.52590248     0.14200
H1572       H  0.87864429  0.45552922  0.48996698     0.14200
H1573       H  0.52631790  0.06502941  0.56161399     0.12500
H1574       H  0.96284679  0.06280950  0.56374480     0.12500
H1575       H  0.51413846  0.41946871  0.44298254     0.12500
H1576       H  0.95054374  0.42379336  0.44349486     0.12500
H1577       H  0.51540560  0.99321196  0.49917385     0.25700
H1578       H  0.96074403  0.52028737  0.49412066     0.25700
N1579       N  0.94581111  0.24383872  0.49952010    -0.37000
N1580       N  0.49481533  0.24446131  0.46929313    -0.57600
N1581       N  0.54296659  0.24195841  0.50029712    -0.37000
N1582       N  0.49396975  0.23810070  0.53003658    -0.61600
C1583       C  0.92750348  0.24095219  0.48325659     0.26500
C1584       C  0.92712706  0.23553898  0.51492339     0.26500
C1585       C  0.56156368  0.23814921  0.48432505     0.26500
C1586       C  0.56082400  0.23278623  0.51610010     0.26500
C1587       C  0.96910781  0.25332731  0.45823070     0.35200
C1588       C  0.52098383  0.25211855  0.45856404     0.35200
C1589       C  0.96791603  0.24254000  0.54131926     0.35200
C1590       C  0.51977605  0.24226289  0.54176899     0.35200
C1591       C  0.89671970  0.23104442  0.48837169    -0.22300
C1592       C  0.89657102  0.22723845  0.50832122    -0.22300
C1593       C  0.59168949  0.22660947  0.49006202    -0.22300
C1594       C  0.59106363  0.22270280  0.51002657    -0.22300
C1595       C  0.97891556  0.26525087  0.44011537    -0.23400
C1596       C  0.51182179  0.26436888  0.44029746    -0.23400
C1597       C  0.97711914  0.24925286  0.56039896    -0.23400
C1598       C  0.51008166  0.24937239  0.56065805    -0.23400
C1599       C  0.93684796  0.25081088  0.46423992    -0.18700
C1600       C  0.93604950  0.23795514  0.53485693    -0.18700
C1601       C  0.55175062  0.23664521  0.53594014    -0.18700
C1602       C  0.55306784  0.24822002  0.46503892    -0.18700
H1603       H  0.87626138  0.22751716  0.47879117     0.14200
H1604       H  0.87596312  0.22021779  0.51700687     0.14200
H1605       H  0.61227655  0.22198561  0.48092297     0.14200
H1606       H  0.61106112  0.21457536  0.51909842     0.14200
H1607       H  0.96393664  0.27401863  0.42810841     0.12500
H1608       H  0.52723174  0.27235770  0.42845025     0.12500
H1609       H  0.96169398  0.25326381  0.57283242     0.12500
H1610       H  0.52516996  0.25332459  0.57337358     0.12500
H1611       H  0.96810057  0.25542496  0.50019076     0.25700
H1612       H  0.52127144  0.25484137  0.50057864     0.25700
N1613       N  0.78331074  0.30432839  0.40505470    -0.06600
N1614       N  0.81016733  0.28631134  0.40616874    -0.58700
N1615       N  0.70880938  0.32177507  0.42163030    -0.06200
N1616       N  0.68402861  0.31730373  0.43324491    -0.60800
N1617       N  0.70873028  0.29844856  0.40780740    -0.05800
N1618       N  0.68358720  0.27790310  0.40960400    -0.58700
N1619       N  0.78239039  0.32721573  0.41909705    -0.05500
N1620       N  0.80824098  0.32495196  0.43016355    -0.61200
C1621       C  0.82559768  0.29952565  0.42193153     0.95600
C1622       C  0.66839318  0.28983979  0.42562419     0.95400
N1623       N  0.70130829  0.42670413  0.40900136    -0.06700
N1624       N  0.67502197  0.44483524  0.41215801    -0.59300
N1625       N  0.77780396  0.40745463  0.41954967    -0.04900
N1626       N  0.80336897  0.41285584  0.43057236    -0.60500
N1627       N  0.77535020  0.43143619  0.40596052    -0.06800
N1628       N  0.79926931  0.45362161  0.40739488    -0.59500
N1629       N  0.70405519  0.40200147  0.42207577    -0.04500
N1630       N  0.67964362  0.40267372  0.43416655    -0.60600
Mn1631     Mn  0.74332985  0.36459700  0.42133000     1.18400
C1632       C  0.66155444  0.42956929  0.42796611     0.97700
C1633       C  0.81659188  0.44149487  0.42271418     0.98400
N1634       N  0.70436933  0.29964768  0.36277441    -0.06800
N1635       N  0.68519677  0.27336496  0.35955007    -0.63100
N1636       N  0.77373080  0.32849895  0.34562748    -0.05600
N1637       N  0.79109203  0.32113000  0.33015290    -0.63800
N1638       N  0.77666447  0.30395656  0.35885574    -0.06300
N1639       N  0.79567692  0.27937354  0.35238127    -0.63400
N1640       N  0.70104085  0.32318900  0.34902372    -0.05200
N1641       N  0.67980573  0.31274497  0.33593643    -0.64100
Mn1642     Mn  0.74360231  0.30064302  0.38377315     1.10700
C1643       C  0.66983888  0.28171447  0.34280315     0.98900
C1644       C  0.80470536  0.29032084  0.33441141     0.99000
N1645       N  0.76865765  0.43425507  0.35968757    -0.06300
N1646       N  0.78377848  0.46206656  0.35345233    -0.61700
N1647       N  0.69657266  0.40641869  0.34896575    -0.05600
N1648       N  0.67773120  0.41721373  0.33457672    -0.58400
N1649       N  0.69666566  0.42917927  0.36316630    -0.06900
N1650       N  0.67757569  0.45520063  0.35880788    -0.61200
N1651       N  0.76852911  0.41052522  0.34600246    -0.05900
N1652       N  0.78365907  0.42181278  0.33035324    -0.58400
Mn1653     Mn  0.73557914  0.43117935  0.38469265     1.20200
Mn1654     Mn  0.73487426  0.36700371  0.34707281     1.10100
Cl1655     Cl  0.73944648  0.36589968  0.38414025    -0.86400
C1656       C  0.79327177  0.45394268  0.33517915     0.95900
C1657       C  0.66580275  0.44762345  0.34093820     0.95700
N1658       N  0.78233359  0.20280072  0.59598694    -0.06600
N1659       N  0.80832428  0.22224434  0.59463340    -0.58700
N1660       N  0.70678055  0.18285665  0.58200560    -0.06200
N1661       N  0.68027249  0.18656204  0.57165688    -0.60800
N1662       N  0.70734089  0.20461303  0.59665477    -0.05800
N1663       N  0.68102808  0.22374617  0.59655234    -0.58700
N1664       N  0.78079947  0.18121361  0.58132756    -0.05500
N1665       N  0.80544531  0.18540772  0.56964653    -0.61200
C1666       C  0.82233774  0.21112708  0.57801268     0.95600
C1667       C  0.66457260  0.21218674  0.58076699     0.95400
N1668       N  0.70330683  0.07781481  0.58912970    -0.06700
N1669       N  0.67767503  0.05916295  0.58472750    -0.59300
N1670       N  0.77883045  0.10183430  0.57776283    -0.04900
N1671       N  0.80434513  0.10135159  0.56663512    -0.60500
N1672       N  0.77844052  0.07484328  0.58940371    -0.06800
N1673       N  0.80393532  0.05536753  0.58607327    -0.59500
N1674       N  0.70555805  0.10387463  0.57691817    -0.04500
N1675       N  0.68216250  0.10321357  0.56395310    -0.60600
Mn1676     Mn  0.74303380  0.14255127  0.57894475     1.18400
C1677       C  0.66464935  0.07537212  0.56886640     0.97700
C1678       C  0.82006772  0.07227421  0.57169001     0.98400
N1679       N  0.70993300  0.19815067  0.64214326    -0.06800
N1680       N  0.69080427  0.22320997  0.64769265    -0.63100
N1681       N  0.78171571  0.16907944  0.65440653    -0.05600
N1682       N  0.80038915  0.17616870  0.66954528    -0.63800
N1683       N  0.78268849  0.19460771  0.64166360    -0.06300
N1684       N  0.80238173  0.21886851  0.64775088    -0.63400
N1685       N  0.70877944  0.17224579  0.65457688    -0.05200
N1686       N  0.68871382  0.17942335  0.66887283    -0.64100
Mn1687     Mn  0.74570639  0.20100774  0.61901032     1.10700
C1688       C  0.67741051  0.21126816  0.66430766     0.98900
C1689       C  0.81341308  0.20725628  0.66517605     0.99000
N1690       N  0.77678726  0.06422193  0.63553367    -0.06300
N1691       N  0.79315944  0.03587721  0.63957769    -0.61700
N1692       N  0.70546950  0.09026951  0.65025623    -0.05600
N1693       N  0.68759033  0.07928151  0.66482775    -0.58400
N1694       N  0.70474685  0.06793951  0.63581461    -0.06900
N1695       N  0.68684473  0.04116438  0.64066869    -0.61200
N1696       N  0.77806149  0.08569526  0.65038521    -0.05900
N1697       N  0.79538297  0.07204878  0.66471458    -0.58400
Mn1698     Mn  0.74064616  0.07018237  0.61217993     1.20200
Mn1699     Mn  0.74361156  0.12933066  0.65273893     1.10100
Cl1700     Cl  0.74330388  0.13565903  0.61582823    -0.86400
C1701       C  0.80508209  0.04117060  0.65772780     0.95900
C1702       C  0.67614171  0.04851214  0.65882722     0.95700
N1703       N  0.79175829  0.50523990  0.00142066    -0.37000
N1704       N  0.74625704  0.01560707  0.97012189    -0.57600
N1705       N  0.69540459  0.00199984  0.99783877    -0.37000
N1706       N  0.74058778  0.49301758  0.02974583    -0.57600
C1707       C  0.81117860  0.01889777  0.98755322     0.26500
C1708       C  0.80825877  0.50521811  0.01849930     0.26500
C1709       C  0.67878241  0.01550065  0.98257049     0.26500
C1710       C  0.67608407  0.50333112  0.01361284     0.26500
C1711       C  0.77334464  0.01521828  0.95941407     0.35200
C1712       C  0.72143444  0.01267902  0.95747091     0.35200
C1713       C  0.76591795  0.48124802  0.04023171     0.35200
C1714       C  0.71398397  0.47994402  0.03823313     0.35200
C1715       C  0.84022957  0.02807175  0.99600996    -0.22300
C1716       C  0.83849786  0.51909703  0.01547987    -0.22300
C1717       C  0.64874092  0.02594925  0.98884138    -0.22300
C1718       C  0.64702480  0.51818709  0.00839396    -0.22300
C1719       C  0.76571793  0.01224247  0.93975700    -0.23400
C1720       C  0.73274456  0.01053945  0.93852728    -0.23400
C1721       C  0.75533996  0.46141505  0.05582397    -0.23400
C1722       C  0.72236754  0.46041668  0.05448357    -0.23400
C1723       C  0.80455471  0.02004276  0.96718334    -0.18700
C1724       C  0.79839292  0.48857613  0.03593649    -0.18700
C1725       C  0.68232604  0.48681447  0.03173664    -0.18700
C1726       C  0.68886707  0.01565873  0.96282707    -0.18700
H1727       H  0.86097870  0.03880720  0.98877226     0.14200
H1728       H  0.85774770  0.52162347  0.02604669     0.14200
H1729       H  0.62961602  0.03704194  0.98008296     0.14200
H1730       H  0.62633348  0.52186527  0.01761251     0.14200
H1731       H  0.78214706  0.01193329  0.92758907     0.12500
H1732       H  0.71867825  0.00888918  0.92522218     0.12500
H1733       H  0.76987312  0.44873067  0.06687375     0.12500
H1734       H  0.70642714  0.44694081  0.06432294     0.12500
H1735       H  0.77054209  0.49193265  0.99893101     0.25700
H1736       H  0.71650770  0.48786006  0.99682750     0.25700
N1737       N  0.69987223  0.25081387  0.00099041    -0.37000
N1738       N  0.75077044  0.24008639  0.97320397    -0.57600
N1739       N  0.79583570  0.25122681  0.00533026    -0.37000
N1740       N  0.74499840  0.26310401  0.03249607    -0.57600
C1741       C  0.68370772  0.25121382  0.98380128     0.26500
C1742       C  0.68045757  0.26497512  0.01451019     0.26500
C1743       C  0.81520478  0.25276688  0.98959188     0.26500
C1744       C  0.81225476  0.26481596  0.02057741     0.26500
C1745       C  0.72601801  0.22707199  0.96275407     0.35200
C1746       C  0.77787362  0.22813953  0.96496686     0.35200
C1747       C  0.71773697  0.26193672  0.04294038     0.35200
C1748       C  0.76950887  0.26117021  0.04542884     0.35200
C1749       C  0.65376375  0.26595006  0.98636991    -0.22300
C1750       C  0.65175874  0.27480854  0.00574577    -0.22300
C1751       C  0.84416702  0.26778001  0.99482308    -0.22300
C1752       C  0.84227510  0.27549877  0.01437068    -0.22300
C1753       C  0.73738705  0.20739992  0.94746093    -0.23400
C1754       C  0.77039233  0.20812688  0.94884253    -0.23400
C1755       C  0.72487638  0.25959282  0.06271043    -0.23400
C1756       C  0.75781834  0.25889881  0.06428522    -0.23400
C1757       C  0.69345609  0.23393555  0.96673134    -0.18700
C1758       C  0.68679149  0.26616962  0.03482944    -0.18700
C1759       C  0.80205662  0.26459530  0.04027981    -0.18700
C1760       C  0.80913028  0.23636911  0.97154056    -0.18700
H1761       H  0.63492569  0.26891020  0.97553447     0.14200
H1762       H  0.63106945  0.28608026  0.01271924     0.14200
H1763       H  0.86491795  0.27161513  0.98565165     0.14200
H1764       H  0.86123898  0.28667789  0.02315720     0.14200
H1765       H  0.72338939  0.19402819  0.93649964     0.12500
H1766       H  0.78695507  0.19536605  0.93915645     0.12500
H1767       H  0.70812643  0.25905955  0.07471529     0.12500
H1768       H  0.77157179  0.25783990  0.07773759     0.12500
H1769       H  0.72051982  0.23697062  0.00385976     0.25700
H1770       H  0.77501292  0.23691354  0.00624591     0.25700
N1771       N  0.96157039  0.18817653  0.90891457    -0.06600
N1772       N  0.93719166  0.20854036  0.91342198    -0.58700
N1773       N  0.03590772  0.15992631  0.91986543    -0.06200
N1774       N  0.56133318  0.16016118  0.93130609    -0.60800
N1775       N  0.03646466  0.18623823  0.90775541    -0.05800
N1776       N  0.56255758  0.20491867  0.91101642    -0.58700
N1777       N  0.96245354  0.16183093  0.92098405    -0.05500
N1778       N  0.93896583  0.16362187  0.93358546    -0.61200
C1779       C  0.92316072  0.19284989  0.92904130     0.95600
C1780       C  0.57808916  0.18829260  0.92588268     0.95400
N1781       N  0.03328675  0.05787787  0.90306066    -0.06700
N1782       N  0.55897104  0.03780007  0.90404730    -0.59300
N1783       N  0.95990741  0.08250118  0.91827428    -0.04900
N1784       N  0.93542198  0.07946062  0.93022687    -0.60500
N1785       N  0.95791240  0.05989955  0.90408378    -0.06800
N1786       N  0.93172152  0.04083393  0.90617099    -0.59500
N1787       N  0.03394489  0.08049459  0.91725493    -0.04500
N1788       N  0.55976532  0.07640260  0.92820379    -0.60600
Mn1789     Mn  0.99808505  0.12113721  0.91957838     1.18400
C1790       C  0.57514289  0.04968188  0.91990912     0.97700
C1791       C  0.91802487  0.05339302  0.92263606     0.98400
N1792       N  0.53295489  0.19397426  0.86135072    -0.06800
N1793       N  0.55015388  0.22114932  0.85632571    -0.63100
N1794       N  0.95914580  0.17215358  0.84811506    -0.05600
N1795       N  0.94040234  0.18313651  0.83379915    -0.63800
N1796       N  0.96061123  0.19523269  0.86214260    -0.06300
N1797       N  0.94320695  0.22246296  0.85730159    -0.63400
N1798       N  0.53169054  0.17182923  0.84683046    -0.05200
N1799       N  0.54788797  0.18393423  0.83174583    -0.64100
Mn1800     Mn  0.99789294  0.19199266  0.88528685     1.10700
C1801       C  0.55953727  0.21465777  0.83782953     0.98900
C1802       C  0.93059570  0.21463188  0.83956955     0.99000
N1803       N  0.95764912  0.06450742  0.85762163    -0.06300
N1804       N  0.93765974  0.04019765  0.85182075    -0.61700
N1805       N  0.53064418  0.08878583  0.84441149    -0.05600
N1806       N  0.54960145  0.08107060  0.82967646    -0.58400
N1807       N  0.53064054  0.06345681  0.85728239    -0.06900
N1808       N  0.54985367  0.03851816  0.85162719    -0.61200
N1809       N  0.95750882  0.09024684  0.84503244    -0.05900
N1810       N  0.93720802  0.08383831  0.83060022    -0.58400
Mn1811     Mn  0.99475331  0.06033222  0.88061137     1.20200
Mn1812     Mn  0.99480429  0.13068097  0.84581587     1.10100
Cl1813     Cl  0.99635954  0.12609719  0.88272128    -0.86400
C1814       C  0.92476225  0.05251499  0.83495825     0.95900
C1815       C  0.56178987  0.04972010  0.83441260     0.95700
N1816       N  0.59249974  0.38305810  0.77397891    -0.37000
N1817       N  0.60420148  0.32937417  0.74653111    -0.57600
N1818       N  0.62475238  0.37979460  0.71772583    -0.37000
N1819       N  0.61294180  0.43379161  0.74537205    -0.57600
C1820       C  0.59318221  0.35518811  0.78594442     0.26500
C1821       C  0.59700943  0.41118480  0.78519464     0.26500
C1822       C  0.63705925  0.35041946  0.71035224     0.26500
C1823       C  0.64058081  0.40648053  0.70940334     0.26500
C1824       C  0.58830910  0.31113210  0.76023936     0.35200
C1825       C  0.60590578  0.30929784  0.73056659     0.35200
C1826       C  0.59959473  0.45471391  0.75870316     0.35200
C1827       C  0.61662256  0.45290021  0.72902174     0.35200
C1828       C  0.59829703  0.36577238  0.80503549    -0.22300
C1829       C  0.60044264  0.40124458  0.80457403    -0.22300
C1830       C  0.66092337  0.35853627  0.69705496    -0.22300
C1831       C  0.66304645  0.39401653  0.69640036    -0.22300
C1832       C  0.57913034  0.27944662  0.75279892    -0.23400
C1833       C  0.59048761  0.27820425  0.73397126    -0.23400
C1834       C  0.59467507  0.48728455  0.75082204    -0.23400
C1835       C  0.60552230  0.48613334  0.73194001    -0.23400
C1836       C  0.58670469  0.32094092  0.78005898    -0.18700
C1837       C  0.59502790  0.44555157  0.77840951    -0.18700
C1838       C  0.63355746  0.44167718  0.71249868    -0.18700
C1839       C  0.62558886  0.31677961  0.71439854    -0.18700
H1840       H  0.59952302  0.34969859  0.81798848     0.14200
H1841       H  0.60369477  0.41786874  0.81707637     0.14200
H1842       H  0.67498965  0.34077368  0.68849442     0.14200
H1843       H  0.67908860  0.40893466  0.68731056     0.14200
H1844       H  0.56708097  0.25876323  0.76046985     0.12500
H1845       H  0.58891076  0.25638351  0.72422976     0.12500
H1846       H  0.58525320  0.00974511  0.75810750     0.12500
H1847       H  0.60621331  0.00754901  0.72175659     0.12500
H1848       H  0.58518278  0.38339458  0.75941026     0.25700
H1849       H  0.60427379  0.38163312  0.72626767     0.25700
N1850       N  0.86956467  0.32778887  0.75244678    -0.37000
N1851       N  0.88041719  0.38358887  0.77951385    -0.57600
N1852       N  0.86158941  0.43198761  0.74896301    -0.37000
N1853       N  0.84997674  0.37605870  0.72231090    -0.57600
C1854       C  0.87139187  0.31090666  0.76972383     0.26500
C1855       C  0.85463081  0.30658253  0.73972353     0.26500
C1856       C  0.86163071  0.45255424  0.76488299     0.26500
C1857       C  0.84544770  0.44870549  0.73451209     0.26500
C1858       C  0.89531310  0.35769414  0.78923673     0.35200
C1859       C  0.89095447  0.41323137  0.78752697     0.35200
C1860       C  0.85161399  0.34696696  0.71162455     0.35200
C1861       C  0.84765883  0.40258435  0.70951751     0.35200
C1862       C  0.85741993  0.27863722  0.76800644    -0.22300
C1863       C  0.84673489  0.27592712  0.74902696    -0.22300
C1864       C  0.84519230  0.48274205  0.76053245    -0.22300
C1865       C  0.83500414  0.48032692  0.74136046    -0.22300
C1866       C  0.91532478  0.37081923  0.80360043    -0.23400
C1867       C  0.91257050  0.40612700  0.80252122    -0.23400
C1868       C  0.85027736  0.35497889  0.69187975    -0.23400
C1869       C  0.84785725  0.39029136  0.69053809    -0.23400
C1870       C  0.88872697  0.32247368  0.78618555    -0.18700
C1871       C  0.85026403  0.31332629  0.71961447    -0.18700
C1872       C  0.84236912  0.43726763  0.71491105    -0.18700
C1873       C  0.87942072  0.44633170  0.78230976    -0.18700
H1874       H  0.85584254  0.25881539  0.77914480     0.14200
H1875       H  0.83516925  0.25362714  0.74268189     0.14200
H1876       H  0.84176165  0.00463883  0.77000704     0.14200
H1877       H  0.82204181  0.99993690  0.73324617     0.14200
H1878       H  0.92990035  0.35645122  0.81394536     0.12500
H1879       H  0.92474000  0.42442838  0.81186220     0.12500
H1880       H  0.85013481  0.33717659  0.67976130     0.12500
H1881       H  0.84557468  0.40511591  0.67716355     0.12500
H1882       H  0.88166986  0.35039868  0.74888895     0.25700
H1883       H  0.87562258  0.41008652  0.74725868     0.25700
N1884       N  0.60862855  0.12303986  0.22275508    -0.37000
N1885       N  0.61749748  0.17244278  0.25394759    -0.57600
N1886       N  0.62597891  0.11621422  0.28149738    -0.37000
N1887       N  0.61532846  0.06651277  0.25099734    -0.57600
C1888       C  0.59906695  0.15246395  0.21361713     0.26500
C1889       C  0.59881107  0.09622825  0.21163985     0.26500
C1890       C  0.62399361  0.14314601  0.29382203     0.26500
C1891       C  0.62255297  0.08723132  0.29228589     0.26500
C1892       C  0.61776800  0.19431347  0.23857528     0.35200
C1893       C  0.62856613  0.19042802  0.26937030     0.35200
C1894       C  0.61408321  0.04790707  0.23437978     0.35200
C1895       C  0.62537385  0.04482974  0.26534390     0.35200
C1896       C  0.58370639  0.14431005  0.19626506    -0.22300
C1897       C  0.58405283  0.10901339  0.19482961    -0.22300
C1898       C  0.61911843  0.13125977  0.31269928    -0.22300
C1899       C  0.61804140  0.09586402  0.31171932    -0.22300
C1900       C  0.62872023  0.22646552  0.24426477    -0.23400
C1901       C  0.63573910  0.22396787  0.26380838    -0.23400
C1902       C  0.62253795  0.01396742  0.23837274    -0.23400
C1903       C  0.63051021  0.01226578  0.25782347    -0.23400
C1904       C  0.60525075  0.18657245  0.21995870    -0.18700
C1905       C  0.60340904  0.06058820  0.21596727    -0.18700
C1906       C  0.62752047  0.05341408  0.28538465    -0.18700
C1907       C  0.62988419  0.17777317  0.28868668    -0.18700
H1908       H  0.57374235  0.16196868  0.18554168     0.14200
H1909       H  0.57435772  0.09458372  0.18268271     0.14200
H1910       H  0.61743444  0.14647155  0.32585971     0.14200
H1911       H  0.61549463  0.07841211  0.32400016     0.14200
H1912       H  0.63090392  0.24943214  0.23532755     0.12500
H1913       H  0.64437529  0.24470080  0.27295686     0.12500
H1914       H  0.62249115  0.49238903  0.22846488     0.12500
H1915       H  0.63767950  0.48926951  0.26568224     0.12500
H1916       H  0.62348236  0.12133823  0.23492352     0.25700
H1917       H  0.63436681  0.11739921  0.26726984     0.25700
N1918       N  0.84352528  0.06767907  0.24441445    -0.37000
N1919       N  0.83610905  0.12136088  0.27403364    -0.57600
N1920       N  0.85570951  0.17256633  0.24568867    -0.37000
N1921       N  0.86534841  0.11932726  0.21655081    -0.57600
C1922       C  0.83983176  0.04836779  0.26080965     0.26500
C1923       C  0.85583150  0.04682601  0.23050771     0.26500
C1924       C  0.85627725  0.19126955  0.26231462     0.26500
C1925       C  0.87254275  0.19040534  0.23220869     0.26500
C1926       C  0.82226628  0.09468627  0.28347908     0.35200
C1927       C  0.82776025  0.15008291  0.28384571     0.35200
C1928       C  0.86641571  0.09146812  0.20476265     0.35200
C1929       C  0.87136877  0.14730239  0.20525848     0.35200
C1930       C  0.84887590  0.01468034  0.25710458    -0.22300
C1931       C  0.85863434  0.01361289  0.23801226    -0.22300
C1932       C  0.87349673  0.22134576  0.25937426    -0.22300
C1933       C  0.88383040  0.22079756  0.24038486    -0.22300
C1934       C  0.80531165  0.10643804  0.29947390    -0.23400
C1935       C  0.80869238  0.14163611  0.29965885    -0.23400
C1936       C  0.87312758  0.10186736  0.18581073    -0.23400
C1937       C  0.87592914  0.13722227  0.18608915    -0.23400
C1938       C  0.82685714  0.05968338  0.27876391    -0.18700
C1939       C  0.86522715  0.05671115  0.21131609    -0.18700
C1940       C  0.87650541  0.18112981  0.21241420    -0.18700
C1941       C  0.83909218  0.18347629  0.27946485    -0.18700
H1942       H  0.84872092  0.49303389  0.26717056     0.14200
H1943       H  0.86752383  0.49090344  0.23067136     0.14200
H1944       H  0.87769640  0.24183189  0.26975076     0.14200
H1945       H  0.89771572  0.24081481  0.23333366     0.14200
H1946       H  0.79217458  0.09118926  0.31001386     0.12500
H1947       H  0.79874301  0.15894037  0.31038489     0.12500
H1948       H  0.87654175  0.08564255  0.17318958     0.12500
H1949       H  0.88206010  0.15347458  0.17376989     0.12500
H1950       H  0.83582940  0.09285120  0.24247393     0.25700
H1951       H  0.84125959  0.15134583  0.24298181     0.25700
N1952       N  0.95925875  0.30277595  0.09812566    -0.06600
N1953       N  0.93419678  0.28181897  0.09744072    -0.58700
N1954       N  0.03126125  0.32973719  0.08265291    -0.06200
N1955       N  0.55550868  0.32721604  0.07050271    -0.60800
N1956       N  0.03408673  0.30706873  0.09689788    -0.05800
N1957       N  0.56046433  0.28852372  0.09469001    -0.58700
N1958       N  0.95722782  0.32607060  0.08417443    -0.05500
N1959       N  0.93098082  0.32147729  0.07367688    -0.61200
C1960       C  0.91691897  0.29369357  0.08197833     0.95600
C1961       C  0.57353092  0.30145151  0.07810527     0.95400
N1962       N  0.02806665  0.43502182  0.09279025    -0.06700
N1963       N  0.55248276  0.45576401  0.08874918    -0.59300
N1964       N  0.95385055  0.40668417  0.08180444    -0.04900
N1965       N  0.92876976  0.40887000  0.07004113    -0.60500
N1966       N  0.95323823  0.43165034  0.09465302    -0.06800
N1967       N  0.92742047  0.45092444  0.09188929    -0.59500
N1968       N  0.02770600  0.40918248  0.08051122    -0.04500
N1969       N  0.55176952  0.41154104  0.06828693    -0.60600
Mn1970     Mn  0.99234920  0.36785507  0.08171357     1.18400
C1971       C  0.56716257  0.44081871  0.07321453     0.97700
C1972       C  0.91210543  0.43652043  0.07638694     0.98400
N1973       N  0.53514527  0.30933660  0.14348281    -0.06800
N1974       N  0.55472742  0.28459373  0.14944565    -0.63100
N1975       N  0.96138193  0.33018621  0.15693507    -0.05600
N1976       N  0.94092726  0.32093894  0.17075264    -0.63800
N1977       N  0.96208148  0.30636956  0.14332550    -0.06300
N1978       N  0.94185337  0.28133004  0.14728836    -0.63400
N1979       N  0.53467538  0.33438298  0.15638465    -0.05200
N1980       N  0.55403947  0.32700641  0.17118376    -0.64100
Mn1981     Mn  0.99795482  0.30549112  0.12035490     1.10700
C1982       C  0.56657480  0.29585618  0.16674503     0.98900
C1983       C  0.92855306  0.29052308  0.16436188     0.99000
N1984       N  0.95690916  0.43661656  0.14096233    -0.06300
N1985       N  0.93639601  0.46126201  0.14547650    -0.61700
N1986       N  0.53149055  0.41712849  0.15360622    -0.05600
N1987       N  0.55202344  0.42824775  0.16695435    -0.58400
N1988       N  0.52999262  0.43932305  0.13899708    -0.06900
N1989       N  0.54956667  0.46546090  0.14211470    -0.61200
N1990       N  0.95841400  0.41357159  0.15515483    -0.05900
N1991       N  0.93907352  0.42233166  0.16952817    -0.58400
Mn1992     Mn  0.99198458  0.43671013  0.11670443     1.20200
Mn1993     Mn  0.99648204  0.37386605  0.15601044     1.10100
Cl1994     Cl  0.99471797  0.37102939  0.11878853    -0.86400
C1995       C  0.92510342  0.45191501  0.16324063     0.95900
C1996       C  0.56348670  0.45830962  0.15955569     0.95700
C1997       C  0.87773551  0.98887914  0.17151026    -0.02300
C1998       C  0.90873789  0.47669700  0.17633082     0.07400
C1999       C  0.92463232  0.48994298  0.19296916    -0.02400
C2000       C  0.91099966  0.01737557  0.20344256    -0.02400
C2001       C  0.87998508  0.02953475  0.19871980     0.07500
C2002       C  0.86298320  0.01442538  0.18304399    -0.02600
Br2003     Br  0.81937510  0.02810535  0.17767711    -0.01100
Br2004     Br  0.85488459  0.46875795  0.14980753    -0.01200
Br2005     Br  0.93510313  0.03865737  0.22438613    -0.01200
Br2006     Br  0.96428003  0.46995252  0.20227271    -0.01200
C2007       C  0.93529491  0.23666639  0.18410993    -0.02300
C2008       C  0.91530909  0.26378813  0.17748822     0.07400
C2009       C  0.88228135  0.26293247  0.18160291    -0.02400
C2010       C  0.86926483  0.23494655  0.19213643    -0.02400
C2011       C  0.88940667  0.20822677  0.19906404     0.07500
C2012       C  0.92253323  0.20952403  0.19529662    -0.02600
Br2013     Br  0.95068768  0.17486319  0.20626864    -0.01100
Br2014     Br  0.98030389  0.23620356  0.17774295    -0.01200
Br2015     Br  0.82385773  0.23304407  0.19719406    -0.01200
Br2016     Br  0.85490479  0.29974546  0.17243373    -0.01200
C2017       C  0.60717382  0.48925537  0.17776733    -0.02300
C2018       C  0.57458990  0.48619916  0.17256519     0.07400
C2019       C  0.55208016  0.50918951  0.18050962    -0.02400
C2020       C  0.56112793  0.03069816  0.19604630    -0.02400
C2021       C  0.59385467  0.03489607  0.20082031     0.07500
C2022       C  0.61708864  0.01511756  0.19092614    -0.02600
Br2023     Br  0.66217666  0.02342824  0.19535737    -0.01100
Br2024     Br  0.63824903  0.45886087  0.16628991    -0.01200
Br2025     Br  0.52832350  0.05375128  0.21091535    -0.01200
Br2026     Br  0.00991823  0.51386862  0.16908539    -0.01200
C2027       C  0.60618313  0.25115604  0.17778477    -0.02300
C2028       C  0.57873679  0.27116465  0.18175745     0.07400
C2029       C  0.56136307  0.26481477  0.19914024    -0.02400
C2030       C  0.56962264  0.23667087  0.21125094    -0.02400
C2031       C  0.59647219  0.21607391  0.20686836     0.07500
C2032       C  0.61533826  0.22411597  0.19047994    -0.02600
Br2033     Br  0.65394713  0.19820417  0.18566718    -0.01100
Br2034     Br  0.63206059  0.26176703  0.15530376    -0.01200
Br2035     Br  0.54332961  0.22539802  0.23355862    -0.01200
Br2036     Br  0.52594372  0.29385963  0.20672434    -0.01200
C2037       C  0.60237034  0.52134860  0.81311169    -0.02300
C2038       C  0.57038398  0.02470680  0.81921780     0.07400
C2039       C  0.54642386  0.00304871  0.81134614    -0.02400
C2040       C  0.55457929  0.97757275  0.79779779    -0.02400
C2041       C  0.58679014  0.47302149  0.79247103     0.07500
C2042       C  0.61068558  0.49515477  0.79991604    -0.02600
Br2043     Br  0.65469527  0.48921013  0.79213182    -0.01100
Br2044     Br  0.63460739  0.55249635  0.82289319    -0.01200
Br2045     Br  0.52149422  0.94947382  0.78603965    -0.01200
Br2046     Br  0.50223872  0.00821195  0.81896763    -0.01200
C2047       C  0.60189916  0.26688108  0.79864611    -0.02300
C2048       C  0.57993276  0.29406592  0.79526829     0.07400
C2049       C  0.55159590  0.29564310  0.80639669    -0.02400
C2050       C  0.54541371  0.27044503  0.82080433    -0.02400
C2051       C  0.56697853  0.24266706  0.82371917     0.07500
C2052       C  0.59499065  0.24084107  0.81241342    -0.02600
Br2053     Br  0.62421319  0.20273568  0.81601973    -0.01100
Br2054     Br  0.64216149  0.26581720  0.78495738    -0.01200
Br2055     Br  0.00650151  0.27366675  0.83583551    -0.01200
Br2056     Br  0.52057192  0.33175666  0.80149176    -0.01200
C2057       C  0.88652144  0.00472777  0.82682184    -0.02300
C2058       C  0.90934010  0.02919487  0.82038838     0.07400
C2059       C  0.91970448  0.02820282  0.80067665    -0.02400
C2060       C  0.91018347  0.50086193  0.78849670    -0.02400
C2061       C  0.88799842  0.47610083  0.79511006     0.07500
C2062       C  0.87546163  0.47873466  0.81413775    -0.02600
Br2063     Br  0.84369785  0.44610761  0.82300611    -0.01100
Br2064     Br  0.86973536  0.00704643  0.85304063    -0.01200
Br2065     Br  0.93001185  0.49534862  0.76323905    -0.01200
Br2066     Br  0.94775340  0.06295494  0.78984750    -0.01200
C2067       C  0.89598618  0.26548782  0.83145248    -0.02300
C2068       C  0.91966875  0.24174141  0.82562374     0.07400
C2069       C  0.93388132  0.24539159  0.80693138    -0.02400
C2070       C  0.92464042  0.27274593  0.79453685    -0.02400
C2071       C  0.90067248  0.29608096  0.80035323     0.07500
C2072       C  0.88645547  0.29247564  0.81886188    -0.02600
Br2073     Br  0.85315023  0.32391064  0.82674809    -0.01100
Br2074     Br  0.87506448  0.25992823  0.85630984    -0.01200
Br2075     Br  0.94538173  0.27888810  0.76955057    -0.01200
Br2076     Br  0.96688235  0.21428813  0.79795029    -0.01200
C2077       C  0.62732412  0.31689648  0.06481862    -0.02300
C2078       C  0.60479700  0.29117010  0.06979906     0.07400
C2079       C  0.61106640  0.25648098  0.06498368    -0.02400
C2080       C  0.63867684  0.24805546  0.05423203    -0.02400
C2081       C  0.65974816  0.27426701  0.04805856     0.07500
C2082       C  0.65423624  0.30861634  0.05354807    -0.02600
Br2083     Br  0.68276717  0.34458313  0.04468832    -0.01100
Br2084     Br  0.62243155  0.36332204  0.07426071    -0.01200
Br2085     Br  0.64732298  0.20082965  0.04730684    -0.01200
Br2086     Br  0.58113449  0.22069632  0.07201619    -0.01200
C2087       C  0.84958798  0.24224581  0.05911956    -0.02300
C2088       C  0.82710016  0.26886570  0.05577027     0.07400
C2089       C  0.83123740  0.30082271  0.06516727    -0.02400
C2090       C  0.85921605  0.30703181  0.07620623    -0.02400
C2091       C  0.88409763  0.28246217  0.07665343     0.07500
C2092       C  0.87842929  0.24921249  0.06921523    -0.02600
Br2093     Br  0.91084138  0.21402759  0.07163304    -0.01100
Br2094     Br  0.84127217  0.19678732  0.04898440    -0.01200
Br2095     Br  0.86340170  0.34873890  0.09126144    -0.01200
Br2096     Br  0.80004022  0.33704034  0.06169468    -0.01200
C2097       C  0.62845546  0.22616170  0.92755711    -0.02300
C2098       C  0.60959277  0.19858687  0.93520878     0.07400
C2099       C  0.62142958  0.18067185  0.95213957    -0.02400
C2100       C  0.65049508  0.19061480  0.96104047    -0.02400
C2101       C  0.66749745  0.21935949  0.95414785     0.07500
C2102       C  0.65684736  0.23669698  0.93725220    -0.02600
Br2103     Br  0.68089701  0.27594775  0.92797862    -0.01100
Br2104     Br  0.61662599  0.25061217  0.90390913    -0.01200
Br2105     Br  0.66714742  0.16544926  0.98346696    -0.01200
Br2106     Br  0.59855590  0.14332850  0.96487237    -0.01200
C2107       C  0.88350099  0.18666710  0.95706329    -0.02300
C2108       C  0.89375539  0.20464861  0.93985562     0.07400
C2109       C  0.87516080  0.23334799  0.93328575    -0.02400
C2110       C  0.84739019  0.24342225  0.94350162    -0.02400
C2111       C  0.83735658  0.22489415  0.96004018     0.07500
C2112       C  0.85527922  0.19652288  0.96670072    -0.02600
Br2113     Br  0.84078100  0.17112070  0.98947213    -0.01100
Br2114     Br  0.90730287  0.14895712  0.96902176    -0.01200
Br2115     Br  0.82318343  0.28351750  0.93535512    -0.01200
Br2116     Br  0.88657439  0.26008579  0.91051076    -0.01200
C2117       C  0.64587874  0.48889564  0.06133557    -0.02300
C2118       C  0.65408169  0.47419443  0.04325043     0.07400
C2119       C  0.63396742  0.44886012  0.03508800    -0.02400
C2120       C  0.60506087  0.43956819  0.04423326    -0.02400
C2121       C  0.59686132  0.45337878  0.06285185     0.07500
C2122       C  0.61797717  0.47804797  0.07135353    -0.02600
Br2123     Br  0.61005679  0.49736230  0.09683284    -0.01100
Br2124     Br  0.67258929  0.52484180  0.07211514    -0.01200
Br2125     Br  0.57680786  0.40925013  0.02965633    -0.01200
Br2126     Br  0.64635580  0.42634351  0.01107227    -0.01200
C2127       C  0.83985413  0.49421118  0.06271890    -0.02300
C2128       C  0.82423609  0.47393036  0.04865134     0.07400
C2129       C  0.83568941  0.44077619  0.04459157    -0.02400
C2130       C  0.86422112  0.42863172  0.05332977    -0.02400
C2131       C  0.88106936  0.44914883  0.06734005     0.07500
C2132       C  0.86789873  0.48200881  0.07220905    -0.02600
Br2133     Br  0.88827332  0.01266606  0.09082822    -0.01100
Br2134     Br  0.82321872  0.03971120  0.06820697    -0.01200
Br2135     Br  0.87938072  0.38423585  0.04446767    -0.01200
Br2136     Br  0.81213071  0.41235098  0.02625243    -0.01200
C2137       C  0.61223310  0.00434948  0.93335866    -0.02300
C2138       C  0.60734859  0.03824223  0.92646533     0.07400
C2139       C  0.63213311  0.06278520  0.92842905    -0.02400
C2140       C  0.66009057  0.05469218  0.93912534    -0.02400
C2141       C  0.66380238  0.02164270  0.94748716     0.07500
C2142       C  0.64062140  0.99596659  0.94364723    -0.02600
Br2143     Br  0.64726088  0.44979534  0.95335298    -0.01100
Br2144     Br  0.57889610  0.47036848  0.93036540    -0.01200
Br2145     Br  0.69207545  0.08979796  0.94359914    -0.01200
Br2146     Br  0.62770505  0.10775638  0.91653391    -0.01200
C2147       C  0.86249929  0.06778624  0.93361408    -0.02300
C2148       C  0.88662680  0.04275821  0.93086628     0.07400
C2149       C  0.88223677  0.00925724  0.93848068    -0.02400
C2150       C  0.85493517  0.00153172  0.94980693    -0.02400
C2151       C  0.83175395  0.02720115  0.95352254     0.07500
C2152       C  0.83541948  0.06022107  0.94509205    -0.02600
Br2153     Br  0.80431772  0.09582857  0.95023946    -0.01100
Br2154     Br  0.86620087  0.11239720  0.92119269    -0.01200
Br2155     Br  0.84980237  0.95609500  0.96094362    -0.01200
Br2156     Br  0.91447313  0.97447797  0.93434716    -0.01200
C2157       C  0.67065429  0.49039149  0.70393898    -0.02300
C2158       C  0.64548374  0.46815337  0.69845361     0.07400
C2159       C  0.63044848  0.47232020  0.68011147    -0.02400
C2160       C  0.64063532  0.99845311  0.66718837    -0.02400
C2161       C  0.66553368  0.02118059  0.67268486     0.07500
C2162       C  0.68073204  0.01681735  0.69118158    -0.02600
Br2163     Br  0.71661120  0.04519709  0.69922984    -0.01100
Br2164     Br  0.69143058  0.48451867  0.72909416    -0.01200
Br2165     Br  0.61944325  0.00371451  0.64218650    -0.01200
Br2166     Br  0.59464190  0.44325280  0.67316932    -0.01200
C2167       C  0.63758040  0.25782387  0.67088131    -0.02300
C2168       C  0.66121721  0.23482658  0.67812498     0.07400
C2169       C  0.67172575  0.23771023  0.69777390    -0.02400
C2170       C  0.66007766  0.26457797  0.70951256    -0.02400
C2171       C  0.63686371  0.28770174  0.70210976     0.07500
C2172       C  0.62517569  0.28383593  0.68292193    -0.02600
Br2173     Br  0.59241066  0.31465967  0.67310654    -0.01100
Br2174     Br  0.62178792  0.25374583  0.64438300    -0.01200
Br2175     Br  0.67773915  0.27138522  0.73536138    -0.01200
Br2176     Br  0.70351314  0.20678440  0.70873586    -0.01200
C2177       C  0.80203941  0.46218919  0.69094494    -0.02300
C2178       C  0.83303944  0.46279722  0.69938347     0.07400
C2179       C  0.85548276  0.48744454  0.69283833    -0.02400
C2180       C  0.84643972  0.01254857  0.67887437    -0.02400
C2181       C  0.81525176  0.01261998  0.67089626     0.07500
C2182       C  0.79343893  0.98645039  0.67638742    -0.02600
Br2183     Br  0.75171093  0.98361591  0.66410178    -0.01100
Br2184     Br  0.77096852  0.42871521  0.69974060    -0.01200
Br2185     Br  0.87714941  0.04619160  0.66996875    -0.01200
Br2186     Br  0.89886938  0.48631357  0.70274085    -0.01200
C2187       C  0.85329685  0.23199591  0.68866247    -0.02300
C2188       C  0.82219613  0.23202193  0.68058305     0.07400
C2189       C  0.79968585  0.25698902  0.68657889    -0.02400
C2190       C  0.80858536  0.28221900  0.70017805    -0.02400
C2191       C  0.84059065  0.28436858  0.70669506     0.07500
C2192       C  0.86287291  0.25882363  0.70121759    -0.02600
Br2193     Br  0.90657795  0.26107162  0.71049406    -0.01100
Br2194     Br  0.88258807  0.19530828  0.68237398    -0.01200
Br2195     Br  0.77665999  0.31315618  0.71052060    -0.01200
Br2196     Br  0.75649029  0.25707162  0.67627535    -0.01200
C2197       C  0.67591089  0.00368270  0.32348219    -0.02300
C2198       C  0.65565676  0.47507892  0.32715699     0.07400
C2199       C  0.62586986  0.47258663  0.31749994    -0.02400
C2200       C  0.61599125  0.49862067  0.30435372    -0.02400
C2201       C  0.63692905  0.02627348  0.29989386     0.07500
C2202       C  0.66692161  0.02860002  0.30949915    -0.02600
Br2203     Br  0.69627924  0.06562910  0.30319902    -0.01100
Br2204     Br  0.71623885  0.00923771  0.33722374    -0.01200
Br2205     Br  0.57364050  0.49685599  0.29290978    -0.01200
Br2206     Br  0.59820952  0.43388906  0.32286189    -0.01200
C2207       C  0.61648305  0.22433314  0.31242416    -0.02300
C2208       C  0.63934039  0.20209227  0.30420382     0.07400
C2209       C  0.67195074  0.20499685  0.30927960    -0.02400
C2210       C  0.68200710  0.23153043  0.32168308    -0.02400
C2211       C  0.65921234  0.25439714  0.32957257     0.07500
C2212       C  0.62641517  0.25015293  0.32542837    -0.02600
Br2213     Br  0.59529582  0.27918021  0.33796265    -0.01100
Br2214     Br  0.57181409  0.21953486  0.30557957    -0.01200
Br2215     Br  0.72715217  0.23673028  0.32739369    -0.01200
Br2216     Br  0.70285183  0.17290931  0.29888941    -0.01200
C2217       C  0.78322515  0.48543802  0.30333096    -0.02300
C2218       C  0.80183024  0.48065099  0.32055424     0.07400
C2219       C  0.82796989  0.00273285  0.32427729    -0.02400
C2220       C  0.83654480  0.02813470  0.31051810    -0.02400
C2221       C  0.81776350  0.03308095  0.29351900     0.07500
C2222       C  0.79058423  0.01233855  0.29026557    -0.02600
Br2223     Br  0.76294299  0.02184390  0.26810252    -0.01100
Br2224     Br  0.74662148  0.45656881  0.29757667    -0.01200
Br2225     Br  0.87452372  0.05559981  0.31473811    -0.01200
Br2226     Br  0.85268641  0.99768355  0.34807870    -0.01200
C2227       C  0.80023904  0.26334842  0.30079093    -0.02300
C2228       C  0.81584807  0.26570105  0.31926465     0.07400
C2229       C  0.84059284  0.24207033  0.32396063    -0.02400
C2230       C  0.84854264  0.21548926  0.31091032    -0.02400
C2231       C  0.83176819  0.21219558  0.29310140     0.07500
C2232       C  0.80802290  0.23643343  0.28795253    -0.02600
Br2233     Br  0.78520236  0.23174343  0.26340076    -0.01100
Br2234     Br  0.76701274  0.29529302  0.29270556    -0.01200
Br2235     Br  0.88257096  0.18355732  0.31729012    -0.01200
Br2236     Br  0.86462742  0.24676651  0.34801853    -0.01200
C2237       C  0.60145939  0.25981289  0.55218387    -0.02300
C2238       C  0.57738933  0.23425053  0.55123542     0.07400
C2239       C  0.57931711  0.20522041  0.56374774    -0.02400
C2240       C  0.60654899  0.20044673  0.57572265    -0.02400
C2241       C  0.63242052  0.22364851  0.57452335     0.07500
C2242       C  0.62913388  0.25427127  0.56364668    -0.02600
Br2243     Br  0.66364044  0.28729788  0.56338665    -0.01100
Br2244     Br  0.59731456  0.30151275  0.53688482    -0.01200
Br2245     Br  0.60921697  0.16146526  0.59333372    -0.01200
Br2246     Br  0.54623070  0.17043155  0.56337290    -0.01200
C2247       C  0.90499978  0.20033869  0.55762309    -0.02300
C2248       C  0.91045670  0.23330335  0.54962892     0.07400
C2249       C  0.88941688  0.26064500  0.55391251    -0.02400
C2250       C  0.86123957  0.25420196  0.56457048    -0.02400
C2251       C  0.85474824  0.22061561  0.57140807     0.07500
C2252       C  0.87775265  0.19437632  0.56906334    -0.02600
Br2253     Br  0.87211156  0.15033843  0.58181196    -0.01100
Br2254     Br  0.93324528  0.16258159  0.55141505    -0.01200
Br2255     Br  0.83052932  0.29061905  0.56845264    -0.01200
Br2256     Br  0.89845112  0.30628163  0.54410010    -0.01200
C2257       C  0.62725231  0.24341198  0.43305962    -0.02300
C2258       C  0.63602388  0.27862689  0.43218786     0.07400
C2259       C  0.61395433  0.30358097  0.43870432    -0.02400
C2260       C  0.58687907  0.29367409  0.44938793    -0.02400
C2261       C  0.57952231  0.25850578  0.45168535     0.07500
C2262       C  0.59833705  0.23360767  0.44217484    -0.02600
Br2263     Br  0.58447122  0.18621493  0.44205040    -0.01100
Br2264     Br  0.65494692  0.20825885  0.42272282    -0.01200
Br2265     Br  0.56038439  0.32852345  0.46131903    -0.01200
Br2266     Br  0.61837900  0.35107580  0.43112290    -0.01200
C2267       C  0.90356590  0.29861591  0.45078535    -0.02300
C2268       C  0.91116565  0.26333278  0.45085514     0.07400
C2269       C  0.89296321  0.24020536  0.43958142    -0.02400
C2270       C  0.86567594  0.25194707  0.42925237    -0.02400
C2271       C  0.85679661  0.28724498  0.43004080     0.07500
C2272       C  0.87700464  0.31073051  0.44009719    -0.02600
Br2273     Br  0.86975347  0.35997411  0.43903382    -0.01100
Br2274     Br  0.92897445  0.33023799  0.46623726    -0.01200
Br2275     Br  0.84006786  0.21856049  0.41528872    -0.01200
Br2276     Br  0.90459173  0.19204984  0.43939670    -0.01200
C2277       C  0.58739406  0.07939823  0.53819291    -0.02300
C2278       C  0.57752945  0.04488479  0.53871065     0.07400
C2279       C  0.59649545  0.02002389  0.54837762    -0.02400
C2280       C  0.62507415  0.02972157  0.55797599    -0.02400
C2281       C  0.63476377  0.06477037  0.55821706     0.07500
C2282       C  0.61605045  0.08939088  0.54754278    -0.02600
Br2283     Br  0.62930609  0.13668140  0.54392619    -0.01100
Br2284     Br  0.56222451  0.11238666  0.52330487    -0.01200
Br2285     Br  0.65239528  0.99370062  0.56839700    -0.01200
Br2286     Br  0.58382341  0.97214897  0.54750692    -0.01200
C2287       C  0.89051642  0.06688148  0.53595865    -0.02300
C2288       C  0.90817831  0.03913124  0.54366711     0.07400
C2289       C  0.89869502  0.02362922  0.56129415    -0.02400
C2290       C  0.87058215  0.03475815  0.57083516    -0.02400
C2291       C  0.85118827  0.06137396  0.56248568     0.07500
C2292       C  0.86217029  0.07791384  0.54502618    -0.02600
Br2293     Br  0.83933720  0.11530617  0.53210961    -0.01100
Br2294     Br  0.90547374  0.08958623  0.51241573    -0.01200
Br2295     Br  0.86024152  0.01322139  0.59552707    -0.01200
Br2296     Br  0.92426101  0.98652399  0.57201689    -0.01200
C2297       C  0.57660283  0.46616414  0.43383537    -0.02300
C2298       C  0.57015869  0.45745148  0.45340177     0.07400
C2299       C  0.59229832  0.43723523  0.46401721    -0.02400
C2300       C  0.62244813  0.42947265  0.45610764    -0.02400
C2301       C  0.62966097  0.43875611  0.43648827     0.07500
C2302       C  0.60569280  0.45590263  0.42515555    -0.02600
Br2303     Br  0.61123645  0.96511559  0.39760357    -0.01100
Br2304     Br  0.54616742  0.99377222  0.41923349    -0.01200
Br2305     Br  0.65390159  0.40860958  0.47342031    -0.01200
Br2306     Br  0.58148076  0.42151549  0.49004444    -0.01200
C2307       C  0.84167216  0.47875539  0.44799482    -0.02300
C2308       C  0.84480765  0.45888700  0.43107846     0.07400
C2309       C  0.87465425  0.45773281  0.42167885    -0.02400
C2310       C  0.90229790  0.47022164  0.43136628    -0.02400
C2311       C  0.90006779  0.48098178  0.45116796     0.07500
C2312       C  0.86919491  0.49249533  0.45693844    -0.02600
Br2313     Br  0.86423916  0.53291333  0.47305957    -0.01100
Br2314     Br  0.79971451  0.48867291  0.45823720    -0.01200
Br2315     Br  0.93869788  0.48246427  0.41544439    -0.01200
Br2316     Br  0.87714403  0.44051620  0.39535639    -0.01200
N2317       N  0.53683880  0.50505087  0.49528677    -0.37000
N2318       N  0.99199859  0.52474165  0.52492733    -0.57600
N2319       N  0.94151872  0.00458954  0.49811405    -0.37000
N2320       N  0.98674888  0.98567104  0.46761878    -0.57600
C2321       C  0.55652257  0.52328809  0.50715196     0.26500
C2322       C  0.55330261  0.99877292  0.47874558     0.26500
C2323       C  0.92642365  0.50450947  0.51555215     0.26500
C2324       C  0.92307398  0.98598691  0.48570127     0.26500
C2325       C  0.51859450  0.53607922  0.53412086     0.35200
C2326       C  0.96683567  0.53433764  0.53587628     0.35200
C2327       C  0.51144578  0.96655992  0.46102140     0.35200
C2328       C  0.95969094  0.97152511  0.46030515     0.35200
C2329       C  0.58551562  0.52907599  0.49784436    -0.22300
C2330       C  0.58340061  0.01379555  0.47989077    -0.22300
C2331       C  0.89887783  0.48469277  0.51442052    -0.22300
C2332       C  0.89727324  0.97207477  0.49573176    -0.22300
C2333       C  0.51034447  0.55278672  0.55123260    -0.23400
C2334       C  0.97734667  0.55215215  0.55218464    -0.23400
C2335       C  0.50013594  0.93934396  0.44996647    -0.23400
C2336       C  0.96714682  0.94195397  0.44996812    -0.23400
C2337       C  0.54987218  0.53369009  0.52649366    -0.18700
C2338       C  0.54392072  0.97495188  0.46428873    -0.18700
C2339       C  0.92854204  0.98245915  0.46538711    -0.18700
C2340       C  0.93489261  0.52490506  0.53179934    -0.18700
H2341       H  0.60634463  0.54240937  0.50352033     0.14200
H2342       H  0.60240485  0.01251507  0.46922609     0.14200
H2343       H  0.88162387  0.48005161  0.52587712     0.14200
H2344       H  0.87865986  0.95546823  0.48999211     0.14200
H2345       H  0.52632473  0.56505195  0.56159781     0.12500
H2346       H  0.96285319  0.56285743  0.56371862     0.12500
H2347       H  0.51413748  0.91946793  0.44299110     0.12500
H2348       H  0.95054187  0.92378571  0.44350671     0.12500
H2349       H  0.51541113  0.49320945  0.49916601     0.25700
H2350       H  0.96072947  0.02027087  0.49414007     0.25700
N2351       N  0.94582754  0.74385663  0.49954160    -0.37000
N2352       N  0.49482844  0.74448748  0.46930818    -0.57600
N2353       N  0.54298775  0.74202667  0.50030778    -0.37000
N2354       N  0.49399617  0.73815499  0.53005295    -0.61600
C2355       C  0.92751195  0.74098489  0.48328067     0.26500
C2356       C  0.92714226  0.73557923  0.51494825     0.26500
C2357       C  0.56157925  0.73820364  0.48433431     0.26500
C2358       C  0.56084926  0.73285991  0.51610975     0.26500
C2359       C  0.96911615  0.75334573  0.45824861     0.35200
C2360       C  0.52099193  0.75215412  0.45857656     0.35200
C2361       C  0.96794344  0.74257134  0.54134072     0.35200
C2362       C  0.51980466  0.74232495  0.54178275     0.35200
C2363       C  0.89672038  0.73111292  0.48840092    -0.22300
C2364       C  0.89657561  0.72731138  0.50835046    -0.22300
C2365       C  0.59170573  0.72666393  0.49006918    -0.22300
C2366       C  0.59108622  0.72276986  0.51003431    -0.22300
C2367       C  0.97891699  0.76527388  0.44013252    -0.23400
C2368       C  0.51182278  0.76440342  0.44031130    -0.23400
C2369       C  0.97714999  0.74927659  0.56042071    -0.23400
C2370       C  0.51011282  0.74941554  0.56067463    -0.23400
C2371       C  0.93685769  0.75082607  0.46426107    -0.18700
C2372       C  0.93607530  0.73797990  0.53488125    -0.18700
C2373       C  0.55177966  0.73671962  0.53595014    -0.18700
C2374       C  0.55307770  0.74826041  0.46504752    -0.18700
H2375       H  0.87625457  0.72760651  0.47882373     0.14200
H2376       H  0.87596370  0.72031481  0.51703870     0.14200
H2377       H  0.61228820  0.72202984  0.48092790     0.14200
H2378       H  0.61108513  0.71464160  0.51910475     0.14200
H2379       H  0.96393342  0.77403909  0.42812711     0.12500
H2380       H  0.52722773  0.77239937  0.42846316     0.12500
H2381       H  0.96172717  0.75326957  0.57285715     0.12500
H2382       H  0.52520346  0.75336656  0.57338925     0.12500
H2383       H  0.96812778  0.75541401  0.50020728     0.25700
H2384       H  0.52129548  0.75491187  0.50059006     0.25700
N2385       N  0.78332709  0.80431594  0.40506845    -0.06600
N2386       N  0.81018729  0.78630547  0.40618165    -0.58700
N2387       N  0.70882262  0.82175976  0.42163685    -0.06200
N2388       N  0.68403295  0.81729799  0.43324503    -0.60800
N2389       N  0.70874567  0.79843401  0.40781345    -0.05800
N2390       N  0.68359469  0.77789828  0.40960351    -0.58700
N2391       N  0.78240328  0.82720442  0.41911008    -0.05500
N2392       N  0.80825542  0.82494745  0.43017555    -0.61200
C2393       C  0.82561606  0.79952436  0.42194343     0.95600
C2394       C  0.66839438  0.78984069  0.42562003     0.95400
N2395       N  0.70130779  0.92668016  0.40901078    -0.06700
N2396       N  0.67501845  0.94480794  0.41216582    -0.59300
N2397       N  0.77780718  0.90744021  0.41956269    -0.04900
N2398       N  0.80337568  0.91283667  0.43058257    -0.60500
N2399       N  0.77535220  0.93142273  0.40597433    -0.06800
N2400       N  0.79927452  0.95360437  0.40740622    -0.59500
N2401       N  0.70405746  0.90198070  0.42208674    -0.04500
N2402       N  0.67964517  0.90265237  0.43417737    -0.60600
Mn2403     Mn  0.74333829  0.86458103  0.42134143     1.18400
C2404       C  0.66155138  0.92954335  0.42797473     0.97700
C2405       C  0.81660071  0.94147293  0.42272285     0.98400
N2406       N  0.70440175  0.79962279  0.36277886    -0.06800
N2407       N  0.68522301  0.77334499  0.35955364    -0.63100
N2408       N  0.77377474  0.82848828  0.34564691    -0.05600
N2409       N  0.79114509  0.82112479  0.33017556    -0.63800
N2410       N  0.77669917  0.80394045  0.35887243    -0.06300
N2411       N  0.79571272  0.77935797  0.35239854    -0.63400
N2412       N  0.70107886  0.82316570  0.34902882    -0.05200
N2413       N  0.67983926  0.81273027  0.33594189    -0.64100
Mn2414     Mn  0.74362627  0.80062436  0.38378386     1.10700
C2415       C  0.66986466  0.78170206  0.34280768     0.98900
C2416       C  0.80475110  0.79031099  0.33443165     0.99000
N2417       N  0.76867065  0.93424689  0.35970225    -0.06300
N2418       N  0.78377355  0.96206865  0.35346456    -0.61700
N2419       N  0.69660271  0.90638452  0.34897377    -0.05600
N2420       N  0.67777759  0.91718145  0.33457808    -0.58400
N2421       N  0.69667811  0.92914066  0.36317642    -0.06900
N2422       N  0.67758835  0.95515884  0.35881330    -0.61200
N2423       N  0.76855443  0.91051526  0.34601805    -0.05900
N2424       N  0.78367281  0.92181310  0.33036692    -0.58400
Mn2425     Mn  0.73558514  0.93115870  0.38470479     1.20200
Mn2426     Mn  0.73491046  0.86698374  0.34708523     1.10100
Cl2427     Cl  0.73946549  0.86588106  0.38415198    -0.86400
C2428       C  0.79326680  0.95395043  0.33519048     0.95900
C2429       C  0.66584302  0.94758977  0.34093607     0.95700
N2430       N  0.78235710  0.70276993  0.59599892    -0.06600
N2431       N  0.80835714  0.72219964  0.59465193    -0.58700
N2432       N  0.70680432  0.68284595  0.58200867    -0.06200
N2433       N  0.68030620  0.68656783  0.57165252    -0.60800
N2434       N  0.70736614  0.70460129  0.59665803    -0.05800
N2435       N  0.68106322  0.72374990  0.59654912    -0.58700
N2436       N  0.78082116  0.68118541  0.58133830    -0.05500
N2437       N  0.80547643  0.68536570  0.56966325    -0.61200
C2438       C  0.82237515  0.71107434  0.57803460     0.95600
C2439       C  0.66461368  0.71220178  0.58075877     0.95400
N2440       N  0.70331791  0.57779818  0.58913197    -0.06700
N2441       N  0.67768336  0.55914976  0.58473040    -0.59300
N2442       N  0.77883990  0.60181896  0.57776440    -0.04900
N2443       N  0.80435262  0.60134489  0.56663546    -0.60500
N2444       N  0.77845522  0.57482550  0.58940320    -0.06800
N2445       N  0.80395259  0.55535472  0.58606913    -0.59500
N2446       N  0.70556677  0.60386205  0.57692281    -0.04500
N2447       N  0.68216690  0.60320688  0.56396028    -0.60600
Mn2448     Mn  0.74304809  0.64253425  0.57895014     1.18400
C2449       C  0.66465347  0.57536450  0.56887214     0.97700
C2450       C  0.82007969  0.57226926  0.57168604     0.98400
N2451       N  0.70994183  0.69812558  0.64214259    -0.06800
N2452       N  0.69079798  0.72317812  0.64768150    -0.63100
N2453       N  0.78172405  0.66905724  0.65441789    -0.05600
N2454       N  0.80040336  0.67614078  0.66955527    -0.63800
N2455       N  0.78270171  0.69458375  0.64167448    -0.06300
N2456       N  0.80240445  0.71883763  0.64775947    -0.63400
N2457       N  0.70878057  0.67222087  0.65457578    -0.05200
N2458       N  0.68869280  0.67939235  0.66886129    -0.64100
Mn2459     Mn  0.74572456  0.70098522  0.61901732     1.10700
C2460       C  0.67738636  0.71123441  0.66429030     0.98900
C2461       C  0.81343730  0.70722323  0.66518405     0.99000
N2462       N  0.77680649  0.56420797  0.63553484    -0.06300
N2463       N  0.79319280  0.53587160  0.63957605    -0.61700
N2464       N  0.70548280  0.59024433  0.65025804    -0.05600
N2465       N  0.68760265  0.57925675  0.66482904    -0.58400
N2466       N  0.70476435  0.56791241  0.63581737    -0.06900
N2467       N  0.68686468  0.54113550  0.64067217    -0.61200
N2468       N  0.77807633  0.58568028  0.65038706    -0.05900
N2469       N  0.79540908  0.57204197  0.66471358    -0.58400
Mn2470     Mn  0.74066209  0.57016149  0.61218138     1.20200
Mn2471     Mn  0.74362003  0.62930864  0.65274355     1.10100
Cl2472     Cl  0.74331732  0.63563800  0.61583294    -0.86400
C2473       C  0.80511989  0.54116973  0.65772484     0.95900
C2474       C  0.67615822  0.54848520  0.65882990     0.95700
N2475       N  0.79179041  0.00529863  0.00143139    -0.37000
N2476       N  0.74626139  0.51563902  0.97010833    -0.57600
N2477       N  0.69537918  0.50196798  0.99779938    -0.37000
N2478       N  0.74064942  0.99314261  0.02978439    -0.57600
C2479       C  0.81116408  0.51886405  0.98755954     0.26500
C2480       C  0.80830760  0.00532275  0.01850462     0.26500
C2481       C  0.67877596  0.51550535  0.98253507     0.26500
C2482       C  0.67612817  0.00339920  0.01366014     0.26500
C2483       C  0.77335584  0.51525247  0.95940788     0.35200
C2484       C  0.72145043  0.51272716  0.95744898     0.35200
C2485       C  0.76599186  0.98139991  0.04027054     0.35200
C2486       C  0.71405439  0.98007721  0.03828720     0.35200
C2487       C  0.84021051  0.52800667  0.99603275    -0.22300
C2488       C  0.83853870  0.01920619  0.01546416    -0.22300
C2489       C  0.64872661  0.52593983  0.98879996    -0.22300
C2490       C  0.64706252  0.01824150  0.00844215    -0.22300
C2491       C  0.76574526  0.51229826  0.93974754    -0.23400
C2492       C  0.73277347  0.51060530  0.93850772    -0.23400
C2493       C  0.75542994  0.96159629  0.05587861    -0.23400
C2494       C  0.72245663  0.96058464  0.05454758    -0.23400
C2495       C  0.80455925  0.52005308  0.96718853    -0.18700
C2496       C  0.79846446  0.98871647  0.03595779    -0.18700
C2497       C  0.68238765  0.98691713  0.03179285    -0.18700
C2498       C  0.68888172  0.51569798  0.96279696    -0.18700
H2499       H  0.86097045  0.53874876  0.98880968     0.14200
H2500       H  0.85779744  0.02176571  0.02602218     0.14200
H2501       H  0.62961177  0.53705129  0.98004096     0.14200
H2502       H  0.62638198  0.02193971  0.01766700     0.14200
H2503       H  0.78218418  0.51199350  0.92758450     0.12500
H2504       H  0.71871697  0.50896833  0.92519824     0.12500
H2505       H  0.76997454  0.94893593  0.06693164     0.12500
H2506       H  0.70652802  0.94712070  0.06439920     0.12500
H2507       H  0.77057464  0.99198106  0.99895893     0.25700
H2508       H  0.71653391  0.98789271  0.99687020     0.25700
N2509       N  0.69988977  0.75085459  0.00099273    -0.37000
N2510       N  0.75076857  0.74011239  0.97319962    -0.57600
N2511       N  0.79585379  0.75120922  0.00532590    -0.37000
N2512       N  0.74503752  0.76309487  0.03249752    -0.57600
C2513       C  0.68371858  0.75127495  0.98380548     0.26500
C2514       C  0.68048707  0.76501586  0.01451900     0.26500
C2515       C  0.81520927  0.75275704  0.98958192     0.26500
C2516       C  0.81228484  0.76479515  0.02056944     0.26500
C2517       C  0.72600750  0.72711061  0.96275263     0.35200
C2518       C  0.77786215  0.72813667  0.96496534     0.35200
C2519       C  0.71777801  0.76193606  0.04294441     0.35200
C2520       C  0.76955289  0.76114661  0.04542721     0.35200
C2521       C  0.65378237  0.76602443  0.98638189    -0.22300
C2522       C  0.65178910  0.77486989  0.00576057    -0.22300
C2523       C  0.84417463  0.76777189  0.99480533    -0.22300
C2524       C  0.84229864  0.77548423  0.01435446    -0.22300
C2525       C  0.73736173  0.70741632  0.94746453    -0.23400
C2526       C  0.77036716  0.70811555  0.94884664    -0.23400
C2527       C  0.72492423  0.75957927  0.06271328    -0.23400
C2528       C  0.75786706  0.75887073  0.06428435    -0.23400
C2529       C  0.69345167  0.73400064  0.96673064    -0.18700
C2530       C  0.68683032  0.76619391  0.03483826    -0.18700
C2531       C  0.80210068  0.76457058  0.04027446    -0.18700
C2532       C  0.80912269  0.73635634  0.97153347    -0.18700
H2533       H  0.63494123  0.76900103  0.97554981     0.14200
H2534       H  0.63110749  0.78614677  0.01273974     0.14200
H2535       H  0.86491748  0.77161097  0.98562760     0.14200
H2536       H  0.86126849  0.78666342  0.02313619     0.14200
H2537       H  0.72335426  0.69404634  0.93650715     0.12500
H2538       H  0.78692099  0.69533322  0.93916396     0.12500
H2539       H  0.70817831  0.75904996  0.07472026     0.12500
H2540       H  0.77162449  0.75780253  0.07773499     0.12500
H2541       H  0.72052856  0.73700264  0.00385590     0.25700
H2542       H  0.77503697  0.73689518  0.00624508     0.25700
N2543       N  0.96157240  0.68818125  0.90892840    -0.06600
N2544       N  0.93718319  0.70853252  0.91342998    -0.58700
N2545       N  0.03591321  0.65994601  0.91986788    -0.06200
N2546       N  0.56133726  0.66019489  0.93130963    -0.60800
N2547       N  0.03646219  0.68625580  0.90775607    -0.05800
N2548       N  0.56254847  0.70494738  0.91101639    -0.58700
N2549       N  0.96245956  0.66183429  0.92099656    -0.05500
N2550       N  0.93896223  0.66361128  0.93359167    -0.61200
C2551       C  0.92314855  0.69283224  0.92904383     0.95600
C2552       C  0.57808427  0.68833203  0.92588484     0.95400
N2553       N  0.03329829  0.55789995  0.90306068    -0.06700
N2554       N  0.55898745  0.53783064  0.90404018    -0.59300
N2555       N  0.95992563  0.58250355  0.91828939    -0.04900
N2556       N  0.93544572  0.57945920  0.93024581    -0.60500
N2557       N  0.95792816  0.55990108  0.90409927    -0.06800
N2558       N  0.93174073  0.54083147  0.90619067    -0.59500
N2559       N  0.03395851  0.58051432  0.91725609    -0.04500
N2560       N  0.55978547  0.57642934  0.92819899    -0.60600
Mn2561     Mn  0.99809611  0.62114854  0.91958705     1.18400
C2562       C  0.57516449  0.54971571  0.91989867     0.97700
C2563       C  0.91804968  0.55338832  0.92265802     0.98400
N2564       N  0.53291503  0.69399832  0.86134894    -0.06800
N2565       N  0.55010498  0.72117553  0.85631576    -0.63100
N2566       N  0.95909366  0.67216104  0.84814036    -0.05600
N2567       N  0.94032883  0.68313778  0.83383319    -0.63800
N2568       N  0.96057132  0.69524320  0.86216571    -0.06300
N2569       N  0.94315503  0.72246918  0.85733170    -0.63400
N2570       N  0.53164256  0.67184877  0.84683134    -0.05200
N2571       N  0.54782884  0.68394836  0.83174139    -0.64100
Mn2572     Mn  0.99787554  0.69200706  0.88529610     1.10700
C2573       C  0.55947814  0.71467494  0.83781855     0.98900
C2574       C  0.93052485  0.71463432  0.83960508     0.99000
N2575       N  0.95763931  0.56450707  0.85763681    -0.06300
N2576       N  0.93765776  0.54018997  0.85183522    -0.61700
N2577       N  0.53061849  0.58881328  0.84441171    -0.05600
N2578       N  0.54957677  0.58111207  0.82967447    -0.58400
N2579       N  0.53063340  0.56348364  0.85728223    -0.06900
N2580       N  0.54986080  0.53855906  0.85162440    -0.61200
N2581       N  0.95748155  0.59025280  0.84505196    -0.05900
N2582       N  0.93717662  0.58384255  0.83062257    -0.58400
Mn2583     Mn  0.99475668  0.56034355  0.88061901     1.20200
Mn2584     Mn  0.99476483  0.63069634  0.84582775     1.10100
Cl2585     Cl  0.99634967  0.62610969  0.88273085    -0.86400
C2586       C  0.92474700  0.55251107  0.83497709     0.95900
C2587       C  0.56178531  0.54976883  0.83440781     0.95700
N2588       N  0.59251516  0.88303597  0.77396387    -0.37000
N2589       N  0.60420662  0.82936080  0.74650731    -0.57600
N2590       N  0.62476228  0.87979462  0.71770830    -0.37000
N2591       N  0.61297280  0.93378305  0.74536732    -0.57600
C2592       C  0.59318339  0.85516027  0.78592544     0.26500
C2593       C  0.59701816  0.91115669  0.78518535     0.26500
C2594       C  0.63705087  0.85041955  0.71032242     0.26500
C2595       C  0.64058917  0.90648139  0.70938510     0.26500
C2596       C  0.58831100  0.81111549  0.76021321     0.35200
C2597       C  0.60589849  0.80929513  0.73053768     0.35200
C2598       C  0.59963305  0.95470295  0.75870264     0.35200
C2599       C  0.61666735  0.95290304  0.72902234     0.35200
C2600       C  0.59828308  0.86573519  0.80501976    -0.22300
C2601       C  0.60043255  0.90120690  0.80456438    -0.22300
C2602       C  0.66090062  0.85853826  0.69701583    -0.22300
C2603       C  0.66303322  0.89401827  0.69636807    -0.22300
C2604       C  0.57912122  0.77943811  0.75276709    -0.23400
C2605       C  0.59047189  0.77820467  0.73393786    -0.23400
C2606       C  0.59473546  0.98728381  0.75083020    -0.23400
C2607       C  0.60558762  0.98614174  0.73194942    -0.23400
C2608       C  0.58670106  0.82091707  0.78003406    -0.18700
C2609       C  0.59504824  0.94552750  0.77840551    -0.18700
C2610       C  0.63358437  0.94167980  0.71249219    -0.18700
C2611       C  0.62557794  0.81677880  0.71436767    -0.18700
H2612       H  0.59949469  0.84965581  0.81797098     0.14200
H2613       H  0.60367474  0.91782454  0.81707045     0.14200
H2614       H  0.67495079  0.84077744  0.68844442     0.14200
H2615       H  0.67906824  0.90893702  0.68727388     0.14200
H2616       H  0.56706509  0.75875505  0.76043428     0.12500
H2617       H  0.58888370  0.75639149  0.72419155     0.12500
H2618       H  0.58518343  0.50974599  0.75809464     0.12500
H2619       H  0.60613601  0.50753269  0.72174149     0.12500
H2620       H  0.58520943  0.88338101  0.75939336     0.25700
H2621       H  0.60429561  0.88163449  0.72626024     0.25700
N2622       N  0.86962226  0.82777713  0.75243471    -0.37000
N2623       N  0.88043950  0.88357689  0.77950598    -0.57600
N2624       N  0.86159412  0.93197744  0.74895787    -0.37000
N2625       N  0.85001246  0.87605370  0.72230064    -0.57600
C2626       C  0.87144490  0.81089059  0.76971125     0.26500
C2627       C  0.85469625  0.80657122  0.73970757     0.26500
C2628       C  0.86162737  0.95253818  0.76488017     0.26500
C2629       C  0.84544411  0.94869257  0.73450904     0.26500
C2630       C  0.89533128  0.85768556  0.78923429     0.35200
C2631       C  0.89096196  0.91322158  0.78752360     0.35200
C2632       C  0.85166363  0.84696538  0.71161195     0.35200
C2633       C  0.84767846  0.90258202  0.70950947     0.35200
C2634       C  0.85748134  0.77861823  0.76798867    -0.22300
C2635       C  0.84680388  0.77591126  0.74900758    -0.22300
C2636       C  0.84517505  0.98271891  0.76053368    -0.22300
C2637       C  0.83498559  0.98030526  0.74136182    -0.22300
C2638       C  0.91532538  0.87081464  0.80360564    -0.23400
C2639       C  0.91256621  0.90612157  0.80252495    -0.23400
C2640       C  0.85032053  0.85498231  0.69186786    -0.23400
C2641       C  0.84788216  0.89029399  0.69052910    -0.23400
C2642       C  0.88875396  0.82246393  0.78618210    -0.18700
C2643       C  0.85032596  0.81332119  0.71959891    -0.18700
C2644       C  0.84237111  0.93726147  0.71490613    -0.18700
C2645       C  0.87942202  0.94631922  0.78230554    -0.18700
H2646       H  0.85589886  0.75879481  0.77912582     0.14200
H2647       H  0.83524141  0.75361169  0.74265993     0.14200
H2648       H  0.84178825  0.50466759  0.77000292     0.14200
H2649       H  0.82207049  0.49996261  0.73324194     0.14200
H2650       H  0.92989242  0.85644959  0.81395638     0.12500
H2651       H  0.92472204  0.92442496  0.81187117     0.12500
H2652       H  0.85018458  0.83718301  0.67974799     0.12500
H2653       H  0.84559034  0.90512058  0.67715582     0.12500
H2654       H  0.88171781  0.85039508  0.74888080     0.25700
H2655       H  0.87563816  0.91008471  0.74725129     0.25700
N2656       N  0.60857757  0.62304313  0.22275209    -0.37000
N2657       N  0.61747524  0.67245556  0.25394332    -0.57600
N2658       N  0.62583759  0.61622715  0.28150943    -0.37000
N2659       N  0.61513417  0.56651370  0.25101206    -0.57600
C2660       C  0.59909598  0.65248046  0.21359622     0.26500
C2661       C  0.59876770  0.59624335  0.21162497     0.26500
C2662       C  0.62390656  0.64316979  0.29383110     0.26500
C2663       C  0.62240237  0.58725340  0.29230521     0.26500
C2664       C  0.61777373  0.69432219  0.23856952     0.35200
C2665       C  0.62852640  0.69044124  0.26937053     0.35200
C2666       C  0.61384664  0.54789186  0.23439996     0.35200
C2667       C  0.62510459  0.54481348  0.26537096     0.35200
C2668       C  0.58379951  0.64434594  0.19622075    -0.22300
C2669       C  0.58410730  0.60904998  0.19478793    -0.22300
C2670       C  0.61905393  0.63129778  0.31271365    -0.22300
C2671       C  0.61794166  0.59590265  0.31174064    -0.22300
C2672       C  0.62872512  0.72647263  0.24426255    -0.23400
C2673       C  0.63571678  0.72397736  0.26380926    -0.23400
C2674       C  0.62218363  0.51392518  0.23841135    -0.23400
C2675       C  0.63013514  0.51221959  0.25786514    -0.23400
C2676       C  0.60528531  0.68658356  0.21994546    -0.18700
C2677       C  0.60327265  0.56059327  0.21596818    -0.18700
C2678       C  0.62731306  0.55342255  0.28540779    -0.18700
C2679       C  0.62982452  0.67779128  0.28868887    -0.18700
H2680       H  0.57390446  0.66201599  0.18547984     0.14200
H2681       H  0.57444633  0.59463668  0.18262504     0.14200
H2682       H  0.61741123  0.64651746  0.32587324     0.14200
H2683       H  0.61540132  0.57846034  0.32402641     0.14200
H2684       H  0.63092900  0.74943635  0.23532481     0.12500
H2685       H  0.64434795  0.74471004  0.27295965     0.12500
H2686       H  0.62289913  0.99244458  0.22841804     0.12500
H2687       H  0.63812696  0.98933272  0.26563084     0.12500
H2688       H  0.62336918  0.62132007  0.23494636     0.25700
H2689       H  0.63419970  0.61739085  0.26727666     0.25700
N2690       N  0.84365296  0.56766982  0.24443804    -0.37000
N2691       N  0.83616957  0.62136004  0.27404356    -0.57600
N2692       N  0.85569259  0.67256805  0.24568513    -0.37000
N2693       N  0.86537678  0.61931981  0.21655769    -0.57600
C2694       C  0.84001064  0.54837218  0.26084207     0.26500
C2695       C  0.85599954  0.54682898  0.23053904     0.26500
C2696       C  0.85625814  0.69127848  0.26230861     0.26500
C2697       C  0.87251620  0.69040890  0.23220161     0.26500
C2698       C  0.82235299  0.59467388  0.28349236     0.35200
C2699       C  0.82778168  0.65007767  0.28384710     0.35200
C2700       C  0.86644240  0.59145900  0.20477145     0.35200
C2701       C  0.87134833  0.64729601  0.20525760     0.35200
C2702       C  0.84913969  0.51470542  0.25715380    -0.22300
C2703       C  0.85889821  0.51363747  0.23806091    -0.22300
C2704       C  0.87346395  0.72136180  0.25936265    -0.22300
C2705       C  0.88379297  0.72081031  0.24037253    -0.22300
C2706       C  0.80537431  0.60641415  0.29948049    -0.23400
C2707       C  0.80871474  0.64161719  0.29965826    -0.23400
C2708       C  0.87309859  0.60185742  0.18581206    -0.23400
C2709       C  0.87587526  0.63721509  0.18608517    -0.23400
C2710       C  0.82698956  0.55967533  0.27878501    -0.18700
C2711       C  0.86531965  0.55670678  0.21133354    -0.18700
C2712       C  0.87647952  0.68112575  0.21240855    -0.18700
C2713       C  0.83908691  0.68347954  0.27946299    -0.18700
H2714       H  0.84840605  0.99299470  0.26711035     0.14200
H2715       H  0.86720823  0.99086520  0.23061387     0.14200
H2716       H  0.87765904  0.74185359  0.26973620     0.14200
H2717       H  0.89766871  0.74083119  0.23331761     0.14200
H2718       H  0.79224988  0.59115518  0.31002161     0.12500
H2719       H  0.79874091  0.65891630  0.31037852     0.12500
H2720       H  0.87649894  0.58562981  0.17319047     0.12500
H2721       H  0.88196741  0.65347014  0.17375974     0.12500
H2722       H  0.83587864  0.59281190  0.24248421     0.25700
H2723       H  0.84125435  0.65133631  0.24298304     0.25700
N2724       N  0.95930020  0.80280739  0.09813659    -0.06600
N2725       N  0.93423748  0.78185145  0.09744631    -0.58700
N2726       N  0.03132310  0.82978129  0.08268583    -0.06200
N2727       N  0.55559355  0.82728327  0.07055013    -0.60800
N2728       N  0.03413782  0.80710441  0.09692719    -0.05800
N2729       N  0.56052848  0.78857561  0.09473031    -0.58700
N2730       N  0.95727155  0.82611238  0.08419018    -0.05500
N2731       N  0.93102231  0.82152764  0.07369204    -0.61200
C2732       C  0.91695921  0.79373709  0.08198682     0.95600
C2733       C  0.57361725  0.80152256  0.07815662     0.95400
N2734       N  0.02812841  0.93505537  0.09284248    -0.06700
N2735       N  0.55255623  0.95579190  0.08881504    -0.59300
N2736       N  0.95390896  0.90674080  0.08182571    -0.04900
N2737       N  0.92884314  0.90895316  0.07005064    -0.60500
N2738       N  0.95329356  0.93169747  0.09468059    -0.06800
N2739       N  0.92748774  0.95098768  0.09191169    -0.59500
N2740       N  0.02777301  0.90922246  0.08055889    -0.04500
N2741       N  0.55185335  0.91157856  0.06834638    -0.60600
Mn2742     Mn  0.99240496  0.86789932  0.08174169     1.18400
C2743       C  0.56724991  0.94084902  0.07328418     0.97700
C2744       C  0.91218476  0.93660882  0.07639765     0.98400
N2745       N  0.53516534  0.80935854  0.14350781    -0.06800
N2746       N  0.55477343  0.78463388  0.14946238    -0.63100
N2747       N  0.96138650  0.83018669  0.15695092    -0.05600
N2748       N  0.94092954  0.82093122  0.17076549    -0.63800
N2749       N  0.96209989  0.80637145  0.14334071    -0.06300
N2750       N  0.94187980  0.78132265  0.14730129    -0.63400
N2751       N  0.53468213  0.83439867  0.15641271    -0.05200
N2752       N  0.55406416  0.82703888  0.17120524    -0.64100
Mn2753     Mn  0.99798650  0.80551189  0.12037437     1.10700
C2754       C  0.56662234  0.79590251  0.16676022     0.98900
C2755       C  0.92856767  0.79051170  0.16437236     0.99000
N2756       N  0.95692276  0.93663061  0.14099144    -0.06300
N2757       N  0.93639681  0.96126742  0.14550027    -0.61700
N2758       N  0.53149705  0.91712067  0.15365301    -0.05600
N2759       N  0.55204635  0.92820355  0.16700118    -0.58400
N2760       N  0.53001633  0.93932622  0.13904937    -0.06900
N2761       N  0.54961799  0.96543886  0.14217126    -0.61200
N2762       N  0.95841098  0.91357483  0.15517886    -0.05900
N2763       N  0.93904546  0.92231856  0.16954308    -0.58400
Mn2764     Mn  0.99202327  0.93673595  0.11674522     1.20200
Mn2765     Mn  0.99648225  0.87386913  0.15603957     1.10100
Cl2766     Cl  0.99474599  0.87105256  0.11881752    -0.86400
C2767       C  0.92507984  0.95190566  0.16325653     0.95900
C2768       C  0.56353906  0.95825617  0.15960853     0.95700
C2769       C  0.87774572  0.48881845  0.17155268    -0.02300
C2770       C  0.90867891  0.97667362  0.17634210     0.07400
C2771       C  0.92449751  0.98983002  0.19303078    -0.02400
C2772       C  0.91113366  0.51747618  0.20339083    -0.02400
C2773       C  0.88006662  0.52954369  0.19872571     0.07500
C2774       C  0.86300973  0.51436218  0.18309495    -0.02600
Br2775     Br  0.81935413  0.52794698  0.17779949    -0.01100
Br2776     Br  0.85494956  0.96892027  0.14970549    -0.01200
Br2777     Br  0.93530483  0.53887147  0.22426669    -0.01200
Br2778     Br  0.96403009  0.96969940  0.20242183    -0.01200
C2779       C  0.93529237  0.73665864  0.18412622    -0.02300
C2780       C  0.91531166  0.76377729  0.17749471     0.07400
C2781       C  0.88227910  0.76291953  0.18159641    -0.02400
C2782       C  0.86925170  0.73492906  0.19212064    -0.02400
C2783       C  0.88938847  0.70821345  0.19905737     0.07500
C2784       C  0.92251982  0.70951532  0.19530703    -0.02600
Br2785     Br  0.95066418  0.67486164  0.20629747    -0.01100
Br2786     Br  0.98030983  0.73620410  0.17778407    -0.01200
Br2787     Br  0.82383772  0.73301398  0.19715494    -0.01200
Br2788     Br  0.85491268  0.79974145  0.17242880    -0.01200
C2789       C  0.60725688  0.98927292  0.17775519    -0.02300
C2790       C  0.57465034  0.98612899  0.17262478     0.07400
C2791       C  0.55212958  0.00903766  0.18063021    -0.02400
C2792       C  0.56103626  0.53081708  0.19595030    -0.02400
C2793       C  0.59374416  0.53491768  0.20080313     0.07500
C2794       C  0.61698976  0.51507382  0.19095954    -0.02600
Br2795     Br  0.66207307  0.52325484  0.19548907    -0.01100
Br2796     Br  0.63833322  0.95894587  0.16622328    -0.01200
Br2797     Br  0.52819461  0.55395960  0.21074400    -0.01200
Br2798     Br  0.00987228  0.01354452  0.16932242    -0.01200
C2799       C  0.60625657  0.75123414  0.17780385    -0.02300
C2800       C  0.57878923  0.77121295  0.18177014     0.07400
C2801       C  0.56139066  0.76482230  0.19913831    -0.02400
C2802       C  0.56963673  0.73665384  0.21123229    -0.02400
C2803       C  0.59651375  0.71609277  0.20685990     0.07500
C2804       C  0.61540948  0.72418195  0.19049145    -0.02600
Br2805     Br  0.65404482  0.69830989  0.18569160    -0.01100
Br2806     Br  0.63216017  0.76190224  0.15534251    -0.01200
Br2807     Br  0.54328106  0.72528789  0.23349716    -0.01200
Br2808     Br  0.52596519  0.79385293  0.20672932    -0.01200
C2809       C  0.60238139  0.02129510  0.81312786    -0.02300
C2810       C  0.57037603  0.52475749  0.81920978     0.07400
C2811       C  0.54641555  0.50308880  0.81134784    -0.02400
C2812       C  0.55456688  0.47760461  0.79780351    -0.02400
C2813       C  0.58680519  0.97299013  0.79247021     0.07500
C2814       C  0.61069899  0.99511675  0.79992368    -0.02600
Br2815     Br  0.65470783  0.98919566  0.79213272    -0.01100
Br2816     Br  0.63462060  0.05241385  0.82293700    -0.01200
Br2817     Br  0.52148000  0.44948722  0.78606181    -0.01200
Br2818     Br  0.50223415  0.50824835  0.81897737    -0.01200
C2819       C  0.60185722  0.76684312  0.79862134    -0.02300
C2820       C  0.57990641  0.79404149  0.79523979     0.07400
C2821       C  0.55156865  0.79563977  0.80636709    -0.02400
C2822       C  0.54537576  0.77045603  0.82078109    -0.02400
C2823       C  0.56692890  0.74267038  0.82370242     0.07500
C2824       C  0.59493680  0.74081754  0.81239480    -0.02600
Br2825     Br  0.62413955  0.70269608  0.81600945    -0.01100
Br2826     Br  0.64211668  0.76573969  0.78493153    -0.01200
Br2827     Br  0.00646728  0.77370911  0.83581438    -0.01200
Br2828     Br  0.52055952  0.83176464  0.80145381    -0.01200
C2829       C  0.88651312  0.50472286  0.82683406    -0.02300
C2830       C  0.90932931  0.52919439  0.82040436     0.07400
C2831       C  0.91969155  0.52821558  0.80069204    -0.02400
C2832       C  0.91019279  0.00084441  0.78848574    -0.02400
C2833       C  0.88800188  0.97609229  0.79510198     0.07500
C2834       C  0.87546559  0.97873619  0.81412903    -0.02600
Br2835     Br  0.84370048  0.94611430  0.82300206    -0.01100
Br2836     Br  0.86971937  0.50703832  0.85305100    -0.01200
Br2837     Br  0.93002657  0.99530798  0.76323131    -0.01200
Br2838     Br  0.94772805  0.56298387  0.78986716    -0.01200
C2839       C  0.89591562  0.76548137  0.83145759    -0.02300
C2840       C  0.91962647  0.74174838  0.82565336     0.07400
C2841       C  0.93389637  0.74541400  0.80697866    -0.02400
C2842       C  0.92467199  0.77275899  0.79457298    -0.02400
C2843       C  0.90067405  0.79607845  0.80036299     0.07500
C2844       C  0.88641079  0.79246867  0.81885834    -0.02600
Br2845     Br  0.85308570  0.82390336  0.82671502    -0.01100
Br2846     Br  0.87492477  0.75990407  0.85629100    -0.01200
Br2847     Br  0.94547945  0.77891259  0.76960909    -0.01200
Br2848     Br  0.96696076  0.71434769  0.79804134    -0.01200
C2849       C  0.62740952  0.81694351  0.06485373    -0.02300
C2850       C  0.60488014  0.79122618  0.06984629     0.07400
C2851       C  0.61113939  0.75653331  0.06503255    -0.02400
C2852       C  0.63872834  0.74809927  0.05426153    -0.02400
C2853       C  0.65979705  0.77430335  0.04807444     0.07500
C2854       C  0.65430207  0.80865445  0.05356691    -0.02600
Br2855     Br  0.68282818  0.84461129  0.04468845    -0.01100
Br2856     Br  0.62255482  0.86336467  0.07430894    -0.01200
Br2857     Br  0.64734460  0.70087207  0.04732571    -0.01200
Br2858     Br  0.58122973  0.72075049  0.07210205    -0.01200
C2859       C  0.84966761  0.74225314  0.05909982    -0.02300
C2860       C  0.82715417  0.76885330  0.05576065     0.07400
C2861       C  0.83127123  0.80080666  0.06516590    -0.02400
C2862       C  0.85924363  0.80702816  0.07620981    -0.02400
C2863       C  0.88414703  0.78248421  0.07664799     0.07500
C2864       C  0.87850580  0.74923836  0.06919624    -0.02600
Br2865     Br  0.91094808  0.71408292  0.07160166    -0.01100
Br2866     Br  0.84139079  0.69679536  0.04895224    -0.01200
Br2867     Br  0.86338483  0.84870855  0.09129240    -0.01200
Br2868     Br  0.80005837  0.83700912  0.06169508    -0.01200
C2869       C  0.62841909  0.72625055  0.92757297    -0.02300
C2870       C  0.60958142  0.69864533  0.93521349     0.07400
C2871       C  0.62143703  0.68071888  0.95213591    -0.02400
C2872       C  0.65049895  0.69067344  0.96103693    -0.02400
C2873       C  0.66748396  0.71943384  0.95415056     0.07500
C2874       C  0.65681559  0.73678545  0.93726372    -0.02600
Br2875     Br  0.68085153  0.77604909  0.92799413    -0.01100
Br2876     Br  0.61653946  0.75075844  0.90395285    -0.01200
Br2877     Br  0.66717275  0.66549970  0.98345476    -0.01200
Br2878     Br  0.59859402  0.64334337  0.96485891    -0.01200
C2879       C  0.88348874  0.68665006  0.95706243    -0.02300
C2880       C  0.89373210  0.70461680  0.93984803     0.07400
C2881       C  0.87511636  0.73328814  0.93326096    -0.02400
C2882       C  0.84734910  0.74336797  0.94347682    -0.02400
C2883       C  0.83733865  0.72486851  0.96003061     0.07500
C2884       C  0.85526956  0.69650964  0.96669980    -0.02600
Br2885     Br  0.84078366  0.67112546  0.98948043    -0.01100
Br2886     Br  0.90729701  0.64894982  0.96902641    -0.01200
Br2887     Br  0.82311261  0.78342839  0.93530624    -0.01200
Br2888     Br  0.88648465  0.75996793  0.91045562    -0.01200
C2889       C  0.64594476  0.98897413  0.06140032    -0.02300
C2890       C  0.65415222  0.97428097  0.04331301     0.07400
C2891       C  0.63405126  0.94892899  0.03515520    -0.02400
C2892       C  0.60515012  0.93962077  0.04430204    -0.02400
C2893       C  0.59694732  0.95342199  0.06292232     0.07500
C2894       C  0.61805598  0.97809863  0.07142399    -0.02600
Br2895     Br  0.61014482  0.99737802  0.09691300    -0.01100
Br2896     Br  0.67262703  0.02494854  0.07217471    -0.01200
Br2897     Br  0.57690826  0.90929291  0.02972359    -0.01200
Br2898     Br  0.64645091  0.92640529  0.01114393    -0.01200
C2899       C  0.83999162  0.99437409  0.06270703    -0.02300
C2900       C  0.82432512  0.97407669  0.04866579     0.07400
C2901       C  0.83574116  0.94089856  0.04462534    -0.02400
C2902       C  0.86427130  0.92873796  0.05335990    -0.02400
C2903       C  0.88116121  0.94926563  0.06734541     0.07500
C2904       C  0.86804203  0.98216152  0.07218831    -0.02600
Br2905     Br  0.88803669  0.51247459  0.09090625    -0.01100
Br2906     Br  0.82302650  0.53951763  0.06823833    -0.01200
Br2907     Br  0.87937210  0.88429963  0.04453109    -0.01200
Br2908     Br  0.81212899  0.91245484  0.02632150    -0.01200
C2909       C  0.61227731  0.50438446  0.93331905    -0.02300
C2910       C  0.60737484  0.53828617  0.92644510     0.07400
C2911       C  0.63214664  0.56284185  0.92841857    -0.02400
C2912       C  0.66010470  0.55475122  0.93911287    -0.02400
C2913       C  0.66383311  0.52168884  0.94745325     0.07500
C2914       C  0.64067453  0.49600062  0.94359539    -0.02600
Br2915     Br  0.64716348  0.94977926  0.95344269    -0.01100
Br2916     Br  0.57884169  0.97034439  0.93040483    -0.01200
Br2917     Br  0.69206486  0.58987201  0.94361622    -0.01200
Br2918     Br  0.62770180  0.60782465  0.91654045    -0.01200
C2919       C  0.86252022  0.56778758  0.93362611    -0.02300
C2920       C  0.88665042  0.54275905  0.93088773     0.07400
C2921       C  0.88225926  0.50926256  0.93850800    -0.02400
C2922       C  0.85495192  0.50154124  0.94982922    -0.02400
C2923       C  0.83177078  0.52721311  0.95353834     0.07500
C2924       C  0.83543546  0.56022768  0.94510061    -0.02600
Br2925     Br  0.80431889  0.59583155  0.95022579    -0.01100
Br2926     Br  0.86622400  0.61239043  0.92119567    -0.01200
Br2927     Br  0.84980166  0.45610150  0.96095966    -0.01200
Br2928     Br  0.91450024  0.47448330  0.93438886    -0.01200
C2929       C  0.67069187  0.99037999  0.70392218    -0.02300
C2930       C  0.64550233  0.96815929  0.69844629     0.07400
C2931       C  0.63043741  0.97235028  0.68011481    -0.02400
C2932       C  0.64065727  0.49841646  0.66718390    -0.02400
C2933       C  0.66553945  0.52115889  0.67268841     0.07500
C2934       C  0.68070760  0.51681974  0.69119635    -0.02600
Br2935     Br  0.71656389  0.54521983  0.69926013    -0.01100
Br2936     Br  0.69151318  0.98446853  0.72906053    -0.01200
Br2937     Br  0.61949738  0.50365085  0.64217012    -0.01200
Br2938     Br  0.59460834  0.94330498  0.67318614    -0.01200
C2939       C  0.63757698  0.75781887  0.67084944    -0.02300
C2940       C  0.66118774  0.73479862  0.67810246     0.07400
C2941       C  0.67167670  0.73767199  0.69775540    -0.02400
C2942       C  0.66003287  0.76454611  0.70949079    -0.02400
C2943       C  0.63684940  0.78769720  0.70207847     0.07500
C2944       C  0.62518239  0.78384534  0.68288460    -0.02600
Br2945     Br  0.59245935  0.81470531  0.67305309    -0.01100
Br2946     Br  0.62180869  0.75375554  0.64434468    -0.01200
Br2947     Br  0.67766077  0.77131854  0.73535087    -0.01200
Br2948     Br  0.70344011  0.70672764  0.70872726    -0.01200
C2949       C  0.80203926  0.96216184  0.69093132    -0.02300
C2950       C  0.83303145  0.96279412  0.69938069     0.07400
C2951       C  0.85545823  0.98746987  0.69284812    -0.02400
C2952       C  0.84647687  0.51251577  0.67885760    -0.02400
C2953       C  0.81527889  0.51261856  0.67089450     0.07500
C2954       C  0.79344414  0.48648263  0.67640329    -0.02600
Br2955     Br  0.75169138  0.48370512  0.66414558    -0.01100
Br2956     Br  0.77098291  0.92866441  0.69971729    -0.01200
Br2957     Br  0.87721433  0.54610511  0.66992345    -0.01200
Br2958     Br  0.89884303  0.98636365  0.70275417    -0.01200
C2959       C  0.85334024  0.73197491  0.68865722    -0.02300
C2960       C  0.82223155  0.73199102  0.68058853     0.07400
C2961       C  0.79972588  0.75696157  0.68658567    -0.02400
C2962       C  0.80863762  0.78220723  0.70017274    -0.02400
C2963       C  0.84064842  0.78436431  0.70667917     0.07500
C2964       C  0.86292675  0.75881537  0.70120130    -0.02600
Br2965     Br  0.90663981  0.76107488  0.71046319    -0.01100
Br2966     Br  0.88262572  0.69527978  0.68237314    -0.01200
Br2967     Br  0.77672045  0.81315485  0.71051444    -0.01200
Br2968     Br  0.75651743  0.75702261  0.67630189    -0.01200
C2969       C  0.67584142  0.50367396  0.32343552    -0.02300
C2970       C  0.65574079  0.97505181  0.32714875     0.07400
C2971       C  0.62602062  0.97251588  0.31741918    -0.02400
C2972       C  0.61618078  0.99855325  0.30426594    -0.02400
C2973       C  0.63675736  0.52629295  0.29991724     0.07500
C2974       C  0.66680608  0.52858653  0.30945986    -0.02600
Br2975     Br  0.69617079  0.56556896  0.30308690    -0.01100
Br2976     Br  0.71623865  0.50919264  0.33710387    -0.01200
Br2977     Br  0.57390339  0.99671926  0.29272203    -0.01200
Br2978     Br  0.59839596  0.93374673  0.32268528    -0.01200
C2979       C  0.61646259  0.72438502  0.31241643    -0.02300
C2980       C  0.63929992  0.70211135  0.30420297     0.07400
C2981       C  0.67191259  0.70498551  0.30928003    -0.02400
C2982       C  0.68199031  0.73150523  0.32168726    -0.02400
C2983       C  0.65921476  0.75439355  0.32957699     0.07500
C2984       C  0.62641522  0.75019151  0.32542405    -0.02600
Br2985     Br  0.59531950  0.77926099  0.33794924    -0.01100
Br2986     Br  0.57179508  0.71966269  0.30554984    -0.01200
Br2987     Br  0.72714039  0.73666360  0.32739819    -0.01200
Br2988     Br  0.70279106  0.67288551  0.29887803    -0.01200
C2989       C  0.78313438  0.98545797  0.30335633    -0.02300
C2990       C  0.80178488  0.98066604  0.32056071     0.07400
C2991       C  0.82800401  0.50272209  0.32429557    -0.02400
C2992       C  0.83661768  0.52811603  0.31054124    -0.02400
C2993       C  0.81787387  0.53306471  0.29352804     0.07500
C2994       C  0.79070188  0.51232438  0.29025043    -0.02600
Br2995     Br  0.76310042  0.52185015  0.26807156    -0.01100
Br2996     Br  0.74650842  0.95659695  0.29764305    -0.01200
Br2997     Br  0.87459683  0.55556794  0.31478655    -0.01200
Br2998     Br  0.85264661  0.49770067  0.34812733    -0.01200
C2999       C  0.80026860  0.76335950  0.30080673    -0.02300
C3000       C  0.81587918  0.76569128  0.31928093     0.07400
C3001       C  0.84060918  0.74204074  0.32397298    -0.02400
C3002       C  0.84854147  0.71545978  0.31091867    -0.02400
C3003       C  0.83177107  0.71219223  0.29310633     0.07500
C3004       C  0.80804307  0.73645249  0.28796075    -0.02600
Br3005     Br  0.78523228  0.73180738  0.26340277    -0.01100
Br3006     Br  0.76704770  0.79531926  0.29273181    -0.01200
Br3007     Br  0.88254187  0.68349265  0.31729844    -0.01200
Br3008     Br  0.86464865  0.74670923  0.34803098    -0.01200
C3009       C  0.60150144  0.75986474  0.55218936    -0.02300
C3010       C  0.57742166  0.73431278  0.55124236     0.07400
C3011       C  0.57935223  0.70526935  0.56374424    -0.02400
C3012       C  0.60658855  0.70047926  0.57571279    -0.02400
C3013       C  0.63246648  0.72367260  0.57451259     0.07500
C3014       C  0.62918742  0.75429916  0.56363813    -0.02600
Br3015     Br  0.66372358  0.78729001  0.56335357    -0.01100
Br3016     Br  0.59735268  0.80158239  0.53690634    -0.01200
Br3017     Br  0.60925535  0.66148209  0.59331302    -0.01200
Br3018     Br  0.54626432  0.67048228  0.56336051    -0.01200
C3019       C  0.90504290  0.70033398  0.55764142    -0.02300
C3020       C  0.91048863  0.73330781  0.54965576     0.07400
C3021       C  0.88943233  0.76063411  0.55394080    -0.02400
C3022       C  0.86125205  0.75416772  0.56459074    -0.02400
C3023       C  0.85477832  0.72057605  0.57142529     0.07500
C3024       C  0.87779342  0.69434871  0.56907625    -0.02600
Br3025     Br  0.87215846  0.65029185  0.58180528    -0.01100
Br3026     Br  0.93330669  0.66259539  0.55142782    -0.01200
Br3027     Br  0.83050445  0.79055540  0.56845524    -0.01200
Br3028     Br  0.89844559  0.80628177  0.54413850    -0.01200
C3029       C  0.62724041  0.74342665  0.43305061    -0.02300
C3030       C  0.63602091  0.77863802  0.43217892     0.07400
C3031       C  0.61396063  0.80359868  0.43869765    -0.02400
C3032       C  0.58689106  0.79370157  0.44938857    -0.02400
C3033       C  0.57952756  0.75853581  0.45168873     0.07500
C3034       C  0.59833088  0.73363077  0.44217511    -0.02600
Br3035     Br  0.58446298  0.68623921  0.44206265    -0.01100
Br3036     Br  0.65491176  0.70826916  0.42269560    -0.01200
Br3037     Br  0.56041775  0.82856010  0.46132843    -0.01200
Br3038     Br  0.61838504  0.85108638  0.43110416    -0.01200
C3039       C  0.90357580  0.79862308  0.45080261    -0.02300
C3040       C  0.91117534  0.76334048  0.45087553     0.07400
C3041       C  0.89297279  0.74020763  0.43960554    -0.02400
C3042       C  0.86569237  0.75194785  0.42926960    -0.02400
C3043       C  0.85681379  0.78724645  0.43005409     0.07500
C3044       C  0.87701767  0.81073458  0.44011142    -0.02600
Br3045     Br  0.86976417  0.85997754  0.43904713    -0.01100
Br3046     Br  0.92897548  0.83024695  0.46625912    -0.01200
Br3047     Br  0.84009366  0.71855911  0.41530098    -0.01200
Br3048     Br  0.90458384  0.69204627  0.43944131    -0.01200
C3049       C  0.58740280  0.57939044  0.53819163    -0.02300
C3050       C  0.57753917  0.54487664  0.53870633     0.07400
C3051       C  0.59650094  0.52001624  0.54837684    -0.02400
C3052       C  0.62507582  0.52971405  0.55798004    -0.02400
C3053       C  0.63476807  0.56476256  0.55822087     0.07500
C3054       C  0.61605746  0.58938272  0.54754405    -0.02600
Br3055     Br  0.62931473  0.63667245  0.54392644    -0.01100
Br3056     Br  0.56223071  0.61238171  0.52330712    -0.01200
Br3057     Br  0.65238671  0.49369223  0.56841013    -0.01200
Br3058     Br  0.58382561  0.47214225  0.54750734    -0.01200
C3059       C  0.89051513  0.56690453  0.53594438    -0.02300
C3060       C  0.90818891  0.53916170  0.54365079     0.07400
C3061       C  0.89872326  0.52366358  0.56128267    -0.02400
C3062       C  0.87061181  0.53478355  0.57082827    -0.02400
C3063       C  0.85119993  0.56138180  0.56247745     0.07500
C3064       C  0.86216618  0.57792196  0.54501414    -0.02600
Br3065     Br  0.83930700  0.61529320  0.53209492    -0.01100
Br3066     Br  0.90546493  0.58962492  0.51240447    -0.01200
Br3067     Br  0.86029967  0.51326572  0.59552971    -0.01200
Br3068     Br  0.92431454  0.48658119  0.57200827    -0.01200
C3069       C  0.57660440  0.96615641  0.43384547    -0.02300
C3070       C  0.57015951  0.95745231  0.45341302     0.07400
C3071       C  0.59229756  0.93723555  0.46403001    -0.02400
C3072       C  0.62244273  0.92945499  0.45611810    -0.02400
C3073       C  0.62965687  0.93873253  0.43649773     0.07500
C3074       C  0.60568942  0.95587968  0.42516464    -0.02600
Br3075     Br  0.61124988  0.46517017  0.39759842    -0.01100
Br3076     Br  0.54615524  0.49376584  0.41922288    -0.01200
Br3077     Br  0.65388507  0.90856276  0.47342688    -0.01200
Br3078     Br  0.58148509  0.92153895  0.49006261    -0.01200
C3079       C  0.84166537  0.97868379  0.44802990    -0.02300
C3080       C  0.84480673  0.95887167  0.43109326     0.07400
C3081       C  0.87464782  0.95777573  0.42168466    -0.02400
C3082       C  0.90229041  0.97024772  0.43138128    -0.02400
C3083       C  0.90005915  0.98096228  0.45119143     0.07500
C3084       C  0.86918021  0.99243743  0.45697369    -0.02600
Br3085     Br  0.86419676  0.03284159  0.47310241    -0.01100
Br3086     Br  0.79970805  0.98851246  0.45830047    -0.01200
Br3087     Br  0.93869990  0.98250480  0.41547103    -0.01200
Br3088     Br  0.87712859  0.94066221  0.39533993    -0.01200
loop_ 
_geom_bond_atom_site_label_1 
_geom_bond_atom_site_label_2 
_geom_bond_distance 
_geom_bond_site_symmetry_2 
_ccdc_geom_bond_type 
N1           H33   1.040   1_545  S
N1            C5   1.353       .  A
N1          C778   1.352   1_545  A
N2           C10   1.347       .  A
N2         C1553   1.347       .  A
N3           H34   1.043       .  S
N3            C8   1.354       .  A
N3          C779   1.355       .  A
N4           C12   1.349       .  A
N4         C1555   1.351       .  A
C5           C13   1.388       .  A
C5           C21   1.416       .  A
C6          N773   1.352       .  A
C6           C22   1.411       .  A
C6           C14   1.386       .  A
C7          N775   1.355       .  A
C7           C15   1.384   1_545  A
C7           C24   1.412       .  A
C8           C23   1.418       .  A
C8           C16   1.388       .  A
C9         N1546   1.347   1_455  A
C9           C21   1.412       .  A
C9           C17   1.387       .  A
C10          C24   1.408       .  A
C10          C18   1.385       .  A
C11        N1548   1.351   1_455  A
C11          C19   1.384       .  A
C11          C22   1.410       .  A
C12          C20   1.388       .  A
C12          C23   1.413       .  A
C13         C786   1.370       .  A
C13          H25   1.082       .  S
C14         C785   1.370       .  A
C14          H26   1.083       .  S
C15         C788   1.374       .  A
C15          H27   1.082       .  S
C16         C787   1.374       .  A
C16          H28   1.082       .  S
C17        C1562   1.378   1_455  A
C17          H29   1.082       .  S
C18        C1561   1.378       .  A
C18          H30   1.082       .  S
C19        C1564   1.380   1_455  A
C19          H31   1.082       .  S
C20        C1563   1.380       .  A
C20          H32   1.082       .  S
C21         C734   1.487       .  S
C22         C754   1.493       .  S
C23         C767   1.531       .  S
C24         C744   1.490       .  S
N35          H67   1.034       .  S
N35          C40   1.353       .  A
N35          C39   1.351       .  A
N36          C44   1.352   1_655  A
N36        C1587   1.352       .  A
N37          H68   1.034       .  S
N37          C42   1.355       .  A
N37          C41   1.354       .  A
N38          C46   1.349   1_655  A
N38        C1589   1.349       .  A
C39          C47   1.387       .  A
C39          C55   1.412       .  A
C40          C56   1.416       .  A
C40          C48   1.388       .  A
C41          C49   1.387       .  A
C41          C58   1.418       .  A
C42          C57   1.421       .  A
C42          C50   1.388       .  A
C43        N1580   1.352       .  A
C43          C55   1.413       .  A
C43          C51   1.386       .  A
C44          C58   1.415       .  A
C44          C52   1.387       .  A
C45        N1582   1.349       .  A
C45          C53   1.385       .  A
C45          C56   1.409       .  A
C46          C54   1.387       .  A
C46          C57   1.412       .  A
C47          C48   1.373       .  A
C47          H59   1.082       .  S
C48          H60   1.082       .  S
C49          C50   1.375       .  A
C49          H61   1.081       .  S
C50          H62   1.082       .  S
C51        C1596   1.373       .  A
C51          H63   1.082       .  S
C52        C1595   1.373   1_455  A
C52          H64   1.082       .  S
C53        C1598   1.375       .  A
C53          H65   1.082       .  S
C54        C1597   1.375   1_455  A
C54          H66   1.082       .  S
C55         C724   1.485       .  S
C56         C704   1.486       .  S
C57         C694   1.494       .  S
C58         C717   1.491       .  S
N69          N70   1.322       .  A
N69          N75   1.313       .  A
N69         Mn98   2.203       .  S
N70          C77   1.356       .  A
N71          N73   1.313       .  A
N71          N72   1.319       .  A
N71         Mn87   2.199       .  S
N72          C78   1.354       .  A
N73          N74   1.323       .  A
N73         Mn98   2.205       .  S
N74          C78   1.354       .  A
N75          N76   1.316       .  A
N75         Mn87   2.188       .  S
N76          C77   1.351       .  A
C77         C727   1.488       .  S
C78         C714   1.490       .  S
N79          N85   1.312       .  A
N79          N80   1.322       .  A
N79        Mn109   2.207       .  S
N80          C88   1.356       .  A
N81          N82   1.319       .  A
N81          N83   1.316       .  A
N81         Mn87   2.202       .  S
N82          C89   1.351       .  A
N83          N84   1.321       .  A
N83        Mn109   2.200       .  S
N84          C89   1.352       .  A
N85          N86   1.317       .  A
N85         Mn87   2.189       .  S
N86          C88   1.352       .  A
Mn87       Cl111   2.550       .  S
C88         C757   1.500       .  S
C89         C764   1.471       .  S
N90          N91   1.315       .  A
N90          N96   1.315       .  A
N90         Mn98   2.171       .  S
N91          C99   1.347       .  A
N92          N94   1.316       .  A
N92          N93   1.320       .  A
N92        Mn110   2.207       .  S
N93         C100   1.353       .  A
N94          N95   1.321       .  A
N94         Mn98   2.204       .  S
N95         C100   1.355       .  A
N96          N97   1.321       .  A
N96        Mn110   2.214       .  S
N97          C99   1.357       .  A
Mn98       Cl111   2.538       .  S
C99         C667   1.465       .  S
C100        C684   1.490       .  S
N101        N102   1.320       .  A
N101        N107   1.317       .  A
N101       Mn109   2.209       .  S
N102        C112   1.353       .  A
N103        N104   1.322       .  A
N103        N105   1.317       .  A
N103       Mn110   2.216       .  S
N104        C113   1.356       .  A
N105        N106   1.317       .  A
N105       Mn109   2.186       .  S
N106        C113   1.349       .  A
N107        N108   1.320       .  A
N107       Mn110   2.197       .  S
N108        C112   1.352       .  A
Mn109      Cl111   2.539       .  S
Mn110      Cl111   2.544       .  S
C112        C674   1.482       .  S
C113        C654   1.479       .  S
N114        N115   1.324       .  A
N114        N120   1.312       .  A
N114       Mn143   2.203       .  S
N115        C122   1.355       .  A
N116        N118   1.314       .  A
N116        N117   1.316       .  A
N116       Mn132   2.187       .  S
N117        C123   1.348       .  A
N118        N119   1.325       .  A
N118       Mn143   2.211       .  S
N119        C123   1.355       .  A
N120        N121   1.316       .  A
N120       Mn132   2.181       .  S
N121        C122   1.350       .  A
C122        C707   1.474       .  S
C123        C697   1.473       .  S
N124        N130   1.312       .  A
N124        N125   1.325       .  A
N124       Mn154   2.228       .  S
N125        C133   1.362       .  A
N126        N127   1.313       .  A
N126        N128   1.313       .  A
N126       Mn132   2.176       .  S
N127        C134   1.347       .  A
N128        N129   1.326       .  A
N128       Mn154   2.231       .  S
N129        C134   1.362       .  A
N130        N131   1.315       .  A
N130       Mn132   2.171       .  S
N131        C133   1.347       .  A
Mn132      Cl156   2.538       .  S
C133        C737   1.498       .  S
C134        C747   1.508       .  S
N135        N136   1.317       .  A
N135        N141   1.315       .  A
N135       Mn143   2.185       .  S
N136        C144   1.350       .  A
N137        N139   1.317       .  A
N137        N138   1.322       .  A
N137       Mn155   2.218       .  S
N138        C145   1.356       .  A
N139        N140   1.317       .  A
N139       Mn143   2.193       .  S
N140        C145   1.351       .  A
N141        N142   1.323       .  A
N141       Mn155   2.214       .  S
N142        C144   1.357       .  A
Mn143      Cl156   2.548       .  S
C144        C624   1.485       .  S
C145        C644   1.475       .  S
N146        N147   1.322       .  A
N146        N152   1.319       .  A
N146       Mn154   2.201       .  S
N147        C157   1.352       .  A
N148        N149   1.318       .  A
N148        N150   1.318       .  A
N148       Mn155   2.204       .  S
N149        C158   1.351       .  A
N150        N151   1.322       .  A
N150       Mn154   2.213       .  S
N151        C158   1.355       .  A
N152        N153   1.323       .  A
N152       Mn155   2.228       .  S
N153        C157   1.355       .  A
Mn154      Cl156   2.557       .  S
Mn155      Cl156   2.537       .  S
C157        C637   1.484       .  S
C158        C617   1.488       .  S
N159        H191   1.038   1_554  S
N159        C164   1.353       .  A
N159        C935   1.356   1_554  A
N160        C167   1.351       .  A
N160        C168   1.350       .  A
N161        H964   1.040   1_545  S
N161        C165   1.353       .  A
N161        C938   1.355   1_556  A
N162        C169   1.351       .  A
N162        C170   1.353       .  A
C163        N931   1.356   1_556  A
C163        C171   1.387       .  A
C163        C179   1.420       .  A
C164        C180   1.418       .  A
C164        C172   1.388       .  A
C165        C173   1.388       .  A
C165        C182   1.418       .  A
C166        N933   1.355   1_554  A
C166        C181   1.416       .  A
C166        C174   1.386       .  A
C167        C179   1.416       .  A
C167        C175   1.386       .  A
C168        C182   1.414       .  A
C168        C176   1.386       .  A
C169        C177   1.387       .  A
C169        C180   1.416       .  A
C170        C178   1.385       .  A
C170        C181   1.415       .  A
C171        C944   1.376   1_556  A
C171        H183   1.082       .  S
C172        C943   1.376   1_554  A
C172        H184   1.082       .  S
C173        C946   1.375   1_556  A
C173        H185   1.082       .  S
C174        C945   1.375   1_554  A
C174        H186   1.082       .  S
C175        C176   1.379       .  A
C175        H187   1.082       .  S
C176        H188   1.082       .  S
C177        C178   1.378       .  A
C177        H189   1.082       .  S
C178        H190   1.082       .  S
C179        C607   1.500       .  S
C180        C584   1.491       .  S
C181        C574   1.502       .  S
C182        C597   1.494       .  S
H192        N933   1.040       .  S
N193        H225   1.032       .  S
N193        C198   1.353       .  A
N193        C197   1.352   1_554  A
N194        C201   1.351       .  A
N194        C202   1.350       .  A
N195        H226   1.033       .  S
N195        C200   1.354       .  A
N195        C199   1.352   1_554  A
N196        C203   1.348       .  A
N196        C204   1.350       .  A
C197        C205   1.386       .  A
C197        C213   1.413       .  A
C198        C214   1.415       .  A
C198        C206   1.388       .  A
C199        C207   1.387       .  A
C199        C216   1.414       .  A
C200        C215   1.417       .  A
C200        C208   1.388       .  A
C201        C213   1.412       .  A
C201        C209   1.385       .  A
C202        C216   1.413       .  A
C202        C210   1.387       .  A
C203        C211   1.386       .  A
C203        C214   1.411       .  A
C204        C212   1.385       .  A
C204        C215   1.411       .  A
C205        C206   1.375   1_556  A
C205        H217   1.083       .  S
C206        H218   1.082       .  S
C207        C208   1.376   1_556  A
C207        H219   1.082       .  S
C208        H220   1.083       .  S
C209        C210   1.379       .  A
C209        H221   1.082       .  S
C210        H222   1.082       .  S
C211        C212   1.378       .  A
C211        H223   1.082       .  S
C212        H224   1.082       .  S
C213        C557   1.492       .  S
C214        C537   1.486       .  S
C215        C544   1.493       .  S
C216        C567   1.490       .  S
N227        N228   1.327       .  A
N227        N233   1.311       .  A
N227       Mn256   2.228       .  S
N228        C235   1.363       .  A
N229        N231   1.312       .  A
N229       N1774   1.314       .  A
N229       Mn245   2.180       .  S
N230        C236   1.348       .  A
N230       N1773   1.314       .  A
N231       N1776   1.326       .  A
N231       Mn256   2.228       .  S
N232        C236   1.362       .  A
N232       N1775   1.326       .  A
N233        N234   1.312       .  A
N233       Mn245   2.171       .  S
N234        C235   1.346       .  A
C235        C564   1.509       .  S
C236        C554   1.512       .  S
N237        N243   1.313       .  A
N237       N1782   1.326       .  A
N237       Mn267   2.218       .  S
N238        C246   1.357       .  A
N238       N1781   1.326       .  A
N239        N240   1.318       .  A
N239        N241   1.314       .  A
N239       Mn245   2.189       .  S
N240        C247   1.349       .  A
N241        N242   1.327       .  A
N241       Mn267   2.231       .  S
N242        C247   1.360       .  A
N243       N1788   1.317       .  A
N243       Mn245   2.180       .  S
N244        C246   1.349       .  A
N244       N1787   1.317       .  A
Mn245      Cl269   2.530       .  S
C246        C594   1.481       .  S
C247        C604   1.487       .  S
N248        N249   1.321       .  A
N248        N254   1.318       .  A
N248      Mn1800   2.205   1_455  S
N249        C257   1.353       .  A
N250        N252   1.318       .  A
N250        N251   1.318       .  A
N250       Mn268   2.198       .  S
N251        C258   1.351       .  A
N252        N253   1.321       .  A
N252       Mn256   2.215       .  S
N253        C258   1.356       .  A
N254        N255   1.322       .  A
N254      Mn1812   2.218   1_455  S
N255        C257   1.354       .  A
Mn256      N1792   2.205       .  S
Mn256      Cl269   2.565       .  S
C257        C507   1.484       .  S
C258        C524   1.486       .  S
N259        N260   1.320       .  A
N259        N265   1.316       .  A
N259       Mn267   2.205       .  S
N260        C270   1.355       .  A
N261        N262   1.321       .  A
N261        N263   1.316       .  A
N261      Mn1812   2.211   1_455  S
N262        C271   1.355       .  A
N263        N264   1.318       .  A
N263      Mn1811   2.199   1_455  S
N264        C271   1.352       .  A
N265        N266   1.321       .  A
N265       Mn268   2.210       .  S
N266        C270   1.354       .  A
Mn267      N1807   2.199       .  S
Mn267      Cl269   2.558       .  S
Mn268      N1798   2.218       .  S
Mn268      N1805   2.211       .  S
Mn268      Cl269   2.532       .  S
C270        C514   1.493       .  S
C271        C494   1.473       .  S
N272        H304   1.041       .  S
N272        C277   1.350       .  A
N272        C276   1.353       .  A
N273        C280   1.350       .  A
N273        C281   1.348       .  A
N274        H305   1.041       .  S
N274        C279   1.353       .  A
N274        C278   1.352       .  A
N275        C282   1.348       .  A
N275        C283   1.349       .  A
C276        C284   1.387       .  A
C276        C292   1.416       .  A
C277        C293   1.412       .  A
C277        C285   1.386       .  A
C278        C286   1.388       .  A
C278        C295   1.417       .  A
C279        C294   1.414       .  A
C279        C287   1.386       .  A
C280        C292   1.413       .  A
C280        C288   1.386       .  A
C281        C295   1.411       .  A
C281        C289   1.387       .  A
C282        C290   1.386       .  A
C282        C293   1.407       .  A
C283        C291   1.386       .  A
C283        C294   1.409       .  A
C284        C285   1.379       .  A
C284        H296   1.082       .  S
C285        H297   1.082       .  S
C286        C287   1.380       .  A
C286        H298   1.082       .  S
C287        H299   1.082       .  S
C288        C289   1.377       .  A
C288        H300   1.082       .  S
C289        H301   1.082       .  S
C290        C291   1.373       .  A
C290       H1074   1.082       .  S
C291       H1075   1.082       .  S
C292        C504   1.498       .  S
C293        C497   1.482       .  S
C294        C614   1.491       .  S
C295        C627   1.489       .  S
H302       C1062   1.082   1_545  S
H303       C1063   1.082   1_545  S
N306        H338   1.041       .  S
N306        C311   1.351       .  A
N306        C310   1.351       .  A
N307        C314   1.351       .  A
N307        C315   1.349       .  A
N308        H339   1.039       .  S
N308        C313   1.355       .  A
N308        C312   1.354       .  A
N309        C316   1.350       .  A
N309        C317   1.351       .  A
C310        C318   1.386       .  A
C310        C326   1.410       .  A
C311        C327   1.410       .  A
C311        C319   1.387       .  A
C312        C320   1.387       .  A
C312        C329   1.420       .  A
C313        C328   1.421       .  A
C313        C321   1.387       .  A
C314        C326   1.410       .  A
C314        C322   1.385       .  A
C315        C329   1.415       .  A
C315        C323   1.388       .  A
C316        C324   1.386       .  A
C316        C327   1.414       .  A
C317        C325   1.387       .  A
C317        C328   1.415       .  A
C318        C319   1.375       .  A
C318        H330   1.082       .  S
C319        H331   1.082       .  S
C320        C321   1.380       .  A
C320       H1104   1.082       .  S
C321       H1105   1.082       .  S
C322        C323   1.376       .  A
C322        H334   1.082       .  S
C323        H335   1.082       .  S
C324        C325   1.376       .  A
C324        H336   1.082       .  S
C325        H337   1.082       .  S
C326        C527   1.490       .  S
C327        C647   1.488       .  S
C328        C634   1.498       .  S
C329        C517   1.496       .  S
H332       C1092   1.082   1_545  S
H333       C1093   1.082       .  S
N340        H372   1.037       .  S
N340        C345   1.354       .  A
N340        C344   1.357       .  A
N341        C348   1.348       .  A
N341        C349   1.348       .  A
N342        H373   1.038       .  S
N342        C347   1.350       .  A
N342        C346   1.350       .  A
N343        C350   1.351       .  A
N343        C351   1.354       .  A
C344        C352   1.384       .  A
C344        C360   1.418       .  A
C345        C361   1.425       .  A
C345        C353   1.390       .  A
C346        C354   1.386       .  A
C346        C363   1.409       .  A
C347        C362   1.413       .  A
C347        C355   1.388       .  A
C348        C360   1.408       .  A
C348        C356   1.386       .  A
C349        C363   1.409       .  A
C349        C357   1.387       .  A
C350        C358   1.389       .  A
C350        C361   1.419       .  A
C351        C359   1.384       .  A
C351        C362   1.416       .  A
C352        C353   1.374       .  A
C352        H364   1.082       .  S
C353        H365   1.081       .  S
C354        C355   1.376       .  A
C354        H366   1.082       .  S
C355        H367   1.082       .  S
C356        C357   1.371       .  A
C356        H368   1.082       .  S
C357        H369   1.082       .  S
C358        C359   1.371       .  A
C358       H1142   1.081   1_545  S
C359       H1143   1.082   1_545  S
C360        C487   1.494       .  S
C361        C477   1.494       .  S
C362        C657   1.494       .  S
C363        C664   1.476       .  S
H370       C1130   1.081       .  S
H371       C1131   1.082       .  S
N374        H406   1.036       .  S
N374        C379   1.356       .  A
N374        C378   1.356       .  A
N375        C382   1.349       .  A
N375        C383   1.351       .  A
N376        H407   1.037       .  S
N376        C381   1.351       .  A
N376        C380   1.353       .  A
N377        C384   1.353       .  A
N377        C385   1.354       .  A
C378        C386   1.386       .  A
C378        C394   1.418       .  A
C379        C395   1.424       .  A
C379        C387   1.389       .  A
C380        C388   1.385       .  A
C380        C397   1.411       .  A
C381        C396   1.415       .  A
C381        C389   1.389       .  A
C382        C394   1.411       .  A
C382        C390   1.387       .  A
C383        C397   1.411       .  A
C383        C391   1.385       .  A
C384        C392   1.387       .  A
C384        C395   1.420       .  A
C385        C393   1.386       .  A
C385        C396   1.419       .  A
C386        C387   1.372       .  A
C386       H1170   1.082   1_545  S
C387       H1171   1.082   1_545  S
C388        C389   1.373       .  A
C388        H400   1.082       .  S
C389        H401   1.082       .  S
C390        C391   1.373       .  A
C390        H402   1.082       .  S
C391        H403   1.082       .  S
C392        C393   1.377       .  A
C392        H404   1.082       .  S
C393        H405   1.082       .  S
C394        C677   1.491       .  S
C395        C457   1.500       .  S
C396        C467   1.492       .  S
C397        C687   1.491       .  S
H398       C1158   1.082       .  S
H399       C1159   1.082       .  S
N408        N409   1.325       .  A
N408        N414   1.314       .  A
N408       Mn437   2.214       .  S
N409        C416   1.355       .  A
N410        N412   1.314       .  A
N410       N1955   1.318       .  A
N410       Mn426   2.196       .  S
N411        C417   1.351       .  A
N411       N1954   1.318       .  A
N412       N1957   1.324       .  A
N412       Mn437   2.210       .  S
N413        C417   1.356       .  A
N413       N1956   1.324       .  A
N414        N415   1.318       .  A
N414       Mn426   2.192       .  S
N415        C416   1.352       .  A
C416        C547   1.480       .  S
C417        C534   1.482       .  S
N418        N424   1.312       .  A
N418       N1963   1.328       .  A
N418       Mn448   2.232       .  S
N419        C427   1.363       .  A
N419       N1962   1.328       .  A
N420        N421   1.318       .  A
N420        N422   1.312       .  A
N420       Mn426   2.202       .  S
N421        C428   1.353       .  A
N422        N423   1.323       .  A
N422       Mn448   2.213       .  S
N423        C428   1.358       .  A
N424       N1969   1.314       .  A
N424       Mn426   2.180       .  S
N425        C427   1.348       .  A
N425       N1968   1.314       .  A
Mn426      Cl450   2.543       .  S
C427        C577   1.511       .  S
C428        C587   1.512       .  S
N429        N430   1.321       .  A
N429        N435   1.317       .  A
N429      Mn1981   2.215   1_455  S
N430        C438   1.355       .  A
N431        N433   1.316       .  A
N431        N432   1.326       .  A
N431       Mn449   2.241       .  S
N432        C439   1.361       .  A
N433        N434   1.315       .  A
N433       Mn437   2.178       .  S
N434        C439   1.347       .  A
N435        N436   1.321       .  A
N435      Mn1993   2.210   1_455  S
N436        C438   1.354       .  A
Mn437      N1973   2.215       .  S
Mn437      Cl450   2.548       .  S
C438        C484   1.488       .  S
C439        C464   1.478       .  S
N440        N441   1.322       .  A
N440        N446   1.318       .  A
N440       Mn448   2.220       .  S
N441        C451   1.355       .  A
N442        N443   1.322       .  A
N442        N444   1.317       .  A
N442      Mn1993   2.231   1_455  S
N443        C452   1.357       .  A
N444        N445   1.319       .  A
N444      Mn1992   2.196   1_455  S
N445        C452   1.351       .  A
N446        N447   1.322       .  A
N446       Mn449   2.212       .  S
N447        C451   1.354       .  A
Mn448      N1988   2.196       .  S
Mn448      Cl450   2.554       .  S
Mn449      N1979   2.210       .  S
Mn449      N1986   2.231       .  S
Mn449      Cl450   2.552       .  S
C451        C454   1.487       .  S
C452        C474   1.478       .  S
C453        C458   1.414   1_565  A
C453       C1226   1.411       .  A
C453      Br1232   1.930       .  S
C454        C455   1.413       .  A
C454       C1225   1.411       .  A
C455       C1228   1.407       .  A
C455       Br462   1.929       .  S
C456        C457   1.412       .  A
C456       C1227   1.407   1_545  A
C456       Br461   1.934       .  S
C457        C458   1.412       .  A
C458       Br459   1.927       .  S
Br460      C1225   1.930       .  S
C463        C464   1.413       .  A
C463        C468   1.406       .  A
C463       Br470   1.930       .  S
C464        C465   1.408       .  A
C465        C466   1.411       .  A
C465       Br472   1.928       .  S
C466        C467   1.412       .  A
C466       Br471   1.929       .  S
C467        C468   1.408       .  A
C468       Br469   1.931       .  S
C473        C474   1.408       .  A
C473       C1250   1.411       .  A
C473       Br480   1.926       .  S
C474        C475   1.409       .  A
C475       C1248   1.402       .  A
C475      Br2026   1.928       .  S
C476        C477   1.411       .  A
C476       C1247   1.402       .  A
C476       Br481   1.933       .  S
C477        C478   1.415       .  A
C478       C1245   1.411   1_545  A
C478       Br479   1.930       .  S
Br482      C2019   1.928       .  S
C483        C484   1.412       .  A
C483        C488   1.410       .  A
C483       Br490   1.928       .  S
C484        C485   1.418       .  A
C485        C486   1.409       .  A
C485       Br492   1.933       .  S
C486        C487   1.411       .  A
C486       Br491   1.934       .  S
C487        C488   1.408       .  A
C488       Br489   1.929       .  S
C493        C498   1.408       .  A
C493       C1266   1.407       .  A
C493       Br500   1.927       .  S
C494        C495   1.412       .  A
C494       C1265   1.407       .  A
C495        C496   1.403   1_545  A
C495       Br502   1.929       .  S
C496       C1269   1.407       .  A
C496       Br501   1.933       .  S
C497        C498   1.410       .  A
C497       C1268   1.407       .  A
C498       Br499   1.929       .  S
C503        C504   1.414       .  A
C503        C508   1.409       .  A
C503       Br510   1.929       .  S
C504        C505   1.412       .  A
C505        C506   1.410       .  A
C505       Br512   1.934       .  S
C506        C507   1.416       .  A
C506      Br2055   1.932       .  S
C507        C508   1.408       .  A
C508       Br509   1.930       .  S
Br511      C2050   1.932       .  S
C513        C514   1.415       .  A
C513       C1290   1.410   1_545  A
C513       Br520   1.934       .  S
C514        C515   1.420       .  A
C515       C1288   1.409       .  A
C515       Br522   1.933       .  S
C516        C517   1.409       .  A
C516       C1287   1.409       .  A
C516       Br521   1.935       .  S
C517        C518   1.411       .  A
C518       C1285   1.410       .  A
C518       Br519   1.931       .  S
C523        C524   1.412       .  A
C523        C528   1.408       .  A
C523       Br530   1.929       .  S
C524        C525   1.420       .  A
C525        C526   1.407       .  A
C525       Br532   1.936       .  S
C526        C527   1.409       .  A
C526       Br531   1.936       .  S
C527        C528   1.409       .  A
C528       Br529   1.930       .  S
C533        C534   1.413       .  A
C533        C538   1.405       .  A
C533       Br540   1.928       .  S
C534        C535   1.412       .  A
C535        C536   1.410       .  A
C535       Br542   1.929       .  S
C536        C537   1.409       .  A
C536       Br541   1.930       .  S
C537        C538   1.406       .  A
C538       Br539   1.932       .  S
C543        C544   1.412       .  A
C543        C548   1.410       .  A
C543       Br550   1.930       .  S
C544        C545   1.410       .  A
C545        C546   1.407       .  A
C545       Br552   1.928       .  S
C546        C547   1.409       .  A
C546       Br551   1.931       .  S
C547        C548   1.409       .  A
C548       Br549   1.927       .  S
C553        C554   1.428       .  A
C553        C558   1.415       .  A
C553       Br560   1.933       .  S
C554        C555   1.433       .  A
C555        C556   1.408       .  A
C555       Br562   1.941       .  S
C556        C557   1.403       .  A
C556       Br561   1.940       .  S
C557        C558   1.404       .  A
C558       Br559   1.931       .  S
C563        C564   1.434       .  A
C563        C568   1.407       .  A
C563       Br570   1.942       .  S
C564        C565   1.426       .  A
C565        C566   1.413       .  A
C565       Br572   1.930       .  S
C566        C567   1.404       .  A
C566       Br571   1.932       .  S
C567        C568   1.403       .  A
C568       Br569   1.940       .  S
C573        C574   1.410       .  A
C573        C578   1.418       .  A
C573       Br580   1.932       .  S
C574        C575   1.408       .  A
C575        C576   1.408       .  A
C575       Br582   1.939       .  S
C576        C577   1.429       .  A
C576       Br581   1.940       .  S
C577        C578   1.425       .  A
C578       Br579   1.933       .  S
C583        C584   1.404       .  A
C583        C588   1.414       .  A
C583      Br1362   1.933       .  S
C584        C585   1.402       .  A
C585        C586   1.408       .  A
C585       Br592   1.938       .  S
C586        C587   1.431       .  A
C586       Br591   1.937       .  S
C587        C588   1.430       .  A
C588      Br1361   1.935       .  S
Br589      C1360   1.935   1_545  S
Br590      C1355   1.933   1_545  S
C593        C594   1.409       .  A
C593        C598   1.411   1_545  A
C593      Br1372   1.929   1_545  S
C594        C595   1.412       .  A
C595        C596   1.407       .  A
C595       Br602   1.930       .  S
C596        C597   1.410       .  A
C596       Br601   1.931       .  S
C597        C598   1.413   1_545  A
C598      Br1371   1.929       .  S
Br599      C1370   1.929       .  S
Br600      C1365   1.929       .  S
C603        C604   1.413       .  A
C603        C608   1.410       .  A
C603       Br610   1.931       .  S
C604        C605   1.410       .  A
C605        C606   1.413       .  A
C605       Br612   1.928   1_545  S
C606        C607   1.413       .  A
C606       Br611   1.930   1_545  S
C607        C608   1.411       .  A
C608       Br609   1.930       .  S
C613        C614   1.409       .  A
C613       C1390   1.408       .  A
C613       Br620   1.935       .  S
C614        C615   1.408       .  A
C615       C1388   1.409       .  A
C615       Br622   1.930       .  S
C616        C617   1.413   1_565  A
C616       C1387   1.409       .  A
C616       Br621   1.931   1_565  S
C617        C618   1.421       .  A
C618       C1385   1.408   1_545  A
C618       Br619   1.937       .  S
C623        C624   1.415       .  A
C623        C628   1.407       .  A
C623       Br630   1.933       .  S
C624        C625   1.417       .  A
C625        C626   1.408       .  A
C625       Br632   1.933       .  S
C626        C627   1.410       .  A
C626       Br631   1.932       .  S
C627        C628   1.407       .  A
C628       Br629   1.931       .  S
C633        C634   1.413       .  A
C633       C1410   1.412       .  A
C633       Br640   1.932       .  S
C634        C635   1.412       .  A
C635       C1408   1.410       .  A
C635       Br642   1.928       .  S
C636        C637   1.407       .  A
C636       C1407   1.410   1_545  A
C636       Br641   1.928       .  S
C637        C638   1.414   1_545  A
C638       C1405   1.412       .  A
C638       Br639   1.931       .  S
C643        C644   1.407       .  A
C643        C648   1.410       .  A
C643       Br650   1.928       .  S
C644        C645   1.413       .  A
C645        C646   1.403       .  A
C645       Br652   1.930       .  S
C646        C647   1.407       .  A
C646       Br651   1.933       .  S
C647        C648   1.413       .  A
C648       Br649   1.928       .  S
C653        C658   1.406       .  A
C653       C1426   1.416   1_545  A
C653       Br660   1.934       .  S
C654        C655   1.407       .  A
C654       C1425   1.416       .  A
C655        C656   1.409       .  A
C655       Br662   1.929       .  S
C656       C1429   1.413       .  A
C656       Br661   1.929       .  S
C657        C658   1.412       .  A
C657       C1428   1.413   1_545  A
C658       Br659   1.937       .  S
C663        C664   1.408       .  A
C663        C668   1.404       .  A
C663       Br670   1.927       .  S
C664        C665   1.406       .  A
C665        C666   1.401       .  A
C665       Br672   1.934       .  S
C666        C667   1.412       .  A
C666       Br671   1.931       .  S
C667        C668   1.405       .  A
C668       Br669   1.927       .  S
C673        C674   1.418       .  A
C673       C1450   1.408       .  A
C673       Br680   1.933       .  S
C674       C1447   1.410       .  A
C675        C676   1.408       .  A
C675       C1446   1.410   1_545  A
C675       Br682   1.931   1_545  S
C676        C677   1.411       .  A
C676       Br681   1.930       .  S
C677        C678   1.408       .  A
C678       C1445   1.408   1_545  A
C678       Br679   1.933       .  S
C683        C684   1.422       .  A
C683        C688   1.408       .  A
C683       Br690   1.935       .  S
C684        C685   1.415       .  A
C685        C686   1.409       .  A
C685       Br692   1.932       .  S
C686        C687   1.408       .  A
C686       Br691   1.930       .  S
C687        C688   1.407       .  A
C688       Br689   1.935       .  S
C693        C694   1.413       .  A
C693        C698   1.407       .  A
C693       Br700   1.930       .  S
C694        C695   1.413       .  A
C695        C696   1.408       .  A
C695       Br702   1.931       .  S
C696        C697   1.408       .  A
C696       Br701   1.932       .  S
C697        C698   1.405       .  A
C698       Br699   1.927       .  S
C703        C704   1.408       .  A
C703        C708   1.403       .  A
C703       Br710   1.931       .  S
C704        C705   1.410       .  A
C705        C706   1.409       .  A
C705       Br712   1.929       .  S
C706        C707   1.409       .  A
C706       Br711   1.928       .  S
C707        C708   1.409       .  A
C708       Br709   1.930       .  S
C713        C714   1.416       .  A
C713        C718   1.413       .  A
C713       Br720   1.928       .  S
C714        C715   1.412       .  A
C715        C716   1.402       .  A
C715       Br722   1.921       .  S
C716        C717   1.407       .  A
C716       Br721   1.934       .  S
C717        C718   1.409       .  A
C718       Br719   1.928       .  S
C723        C724   1.405       .  A
C723        C728   1.403       .  A
C723       Br730   1.936       .  S
C724        C725   1.406       .  A
C725        C726   1.410       .  A
C725       Br732   1.930       .  S
C726        C727   1.420       .  A
C726       Br731   1.932       .  S
C727        C728   1.419       .  A
C728       Br729   1.935       .  S
C733        C734   1.401       .  A
C733        C738   1.407       .  A
C733       Br740   1.936       .  S
C734        C735   1.407       .  A
C735        C736   1.409       .  A
C735       Br742   1.933   1_545  S
C736        C737   1.419       .  A
C736       Br741   1.934   1_545  S
C737        C738   1.428       .  A
C738       Br739   1.932       .  S
C743        C744   1.403       .  A
C743        C748   1.407       .  A
C743       Br750   1.939       .  S
C744        C745   1.405       .  A
C745        C746   1.415       .  A
C745       Br752   1.930   1_545  S
C746        C747   1.426       .  A
C746       Br751   1.933       .  S
C747        C748   1.432       .  A
C748       Br749   1.941       .  S
C753        C754   1.407       .  A
C753        C758   1.413       .  A
C753      Br1532   1.932       .  S
C754        C755   1.407       .  A
C755        C756   1.406       .  A
C755       Br762   1.936       .  S
C756        C757   1.423       .  A
C756       Br761   1.936       .  S
C757        C758   1.424       .  A
C758      Br1531   1.934       .  S
Br759      C1530   1.934       .  S
Br760      C1525   1.932       .  S
C763        C764   1.402       .  A
C763        C768   1.404       .  A
C763       Br770   1.929       .  S
C764        C765   1.406       .  A
C765        C766   1.413       .  A
C765       Br772   1.929       .  S
C766        C767   1.424       .  A
C766       Br771   1.933       .  S
C767        C768   1.422       .  A
C768       Br769   1.934       .  S
N773        H805   1.040       .  S
N773        C777   1.353       .  A
N774       C2325   1.347       .  A
N774        C782   1.347       .  A
N775        H806   1.043       .  S
N775        C780   1.354   1_545  A
N776       C2327   1.351       .  A
N776        C784   1.349       .  A
C777        C785   1.388       .  A
C777        C793   1.416       .  A
C778        C794   1.411       .  A
C778        C786   1.386   1_565  A
C779        C787   1.384       .  A
C779        C796   1.412       .  A
C780        C795   1.418       .  A
C780        C788   1.388       .  A
C781       N2318   1.347   1_455  A
C781        C793   1.412       .  A
C781        C789   1.387       .  A
C782        C796   1.408       .  A
C782        C790   1.385       .  A
C783       N2320   1.351   1_455  A
C783        C791   1.384       .  A
C783        C794   1.410       .  A
C784        C792   1.388       .  A
C784        C795   1.413       .  A
C785        H797   1.082       .  S
C786        H798   1.083       .  S
C787        H799   1.082       .  S
C788        H800   1.082       .  S
C789       C2334   1.378   1_455  A
C789        H801   1.082       .  S
C790       C2333   1.378       .  A
C790        H802   1.082       .  S
C791       C2336   1.380   1_455  A
C791        H803   1.082       .  S
C792       C2335   1.380       .  A
C792        H804   1.082       .  S
C793       C1506   1.487       .  S
C794       C1526   1.493       .  S
C795       C1539   1.531       .  S
C796       C1516   1.490       .  S
N807        H839   1.033       .  S
N807        C812   1.353       .  A
N807        C811   1.351       .  A
N808       C2359   1.352       .  A
N808        C816   1.352   1_655  A
N809        H840   1.034       .  S
N809        C814   1.355       .  A
N809        C813   1.354       .  A
N810       C2361   1.349       .  A
N810        C818   1.349   1_655  A
C811        C819   1.387       .  A
C811        C827   1.412       .  A
C812        C828   1.416       .  A
C812        C820   1.388       .  A
C813        C821   1.387       .  A
C813        C830   1.417       .  A
C814        C829   1.421       .  A
C814        C822   1.388       .  A
C815       N2352   1.352       .  A
C815        C827   1.413       .  A
C815        C823   1.386       .  A
C816        C830   1.415       .  A
C816        C824   1.387       .  A
C817       N2354   1.349       .  A
C817        C825   1.385       .  A
C817        C828   1.410       .  A
C818        C826   1.387       .  A
C818        C829   1.412       .  A
C819        C820   1.373       .  A
C819        H831   1.082       .  S
C820        H832   1.082       .  S
C821        C822   1.375       .  A
C821        H833   1.081       .  S
C822        H834   1.082       .  S
C823       C2368   1.373       .  A
C823        H835   1.082       .  S
C824       C2367   1.373   1_455  A
C824        H836   1.082       .  S
C825       C2370   1.375       .  A
C825        H837   1.082       .  S
C826       C2369   1.375   1_455  A
C826        H838   1.082       .  S
C827       C1496   1.485       .  S
C828       C1476   1.486       .  S
C829       C1466   1.494       .  S
C830       C1489   1.491       .  S
N841        N842   1.322       .  A
N841        N847   1.313       .  A
N841       Mn870   2.203       .  S
N842        C849   1.356       .  A
N843        N845   1.313       .  A
N843        N844   1.319       .  A
N843       Mn859   2.199       .  S
N844        C850   1.354       .  A
N845        N846   1.323       .  A
N845       Mn870   2.205       .  S
N846        C850   1.354       .  A
N847        N848   1.316       .  A
N847       Mn859   2.188       .  S
N848        C849   1.351       .  A
C849       C1499   1.488       .  S
C850       C1486   1.490       .  S
N851        N857   1.312       .  A
N851        N852   1.322       .  A
N851       Mn881   2.207       .  S
N852        C860   1.356       .  A
N853        N854   1.319       .  A
N853        N855   1.316       .  A
N853       Mn859   2.202       .  S
N854        C861   1.351       .  A
N855        N856   1.321       .  A
N855       Mn881   2.200       .  S
N856        C861   1.352       .  A
N857        N858   1.317       .  A
N857       Mn859   2.189       .  S
N858        C860   1.352       .  A
Mn859      Cl883   2.550       .  S
C860       C1529   1.500       .  S
C861       C1536   1.471       .  S
N862        N863   1.315       .  A
N862        N868   1.315       .  A
N862       Mn870   2.171       .  S
N863        C871   1.347       .  A
N864        N866   1.316       .  A
N864        N865   1.320       .  A
N864       Mn882   2.207       .  S
N865        C872   1.353       .  A
N866        N867   1.321       .  A
N866       Mn870   2.204       .  S
N867        C872   1.355       .  A
N868        N869   1.321       .  A
N868       Mn882   2.214       .  S
N869        C871   1.356       .  A
Mn870      Cl883   2.538       .  S
C871       C1439   1.465       .  S
C872       C1456   1.490       .  S
N873        N874   1.320       .  A
N873        N879   1.317       .  A
N873       Mn881   2.209       .  S
N874        C884   1.353       .  A
N875        N876   1.322       .  A
N875        N877   1.317       .  A
N875       Mn882   2.216       .  S
N876        C885   1.356       .  A
N877        N878   1.317       .  A
N877       Mn881   2.186       .  S
N878        C885   1.349       .  A
N879        N880   1.320       .  A
N879       Mn882   2.197       .  S
N880        C884   1.352       .  A
Mn881      Cl883   2.539       .  S
Mn882      Cl883   2.543       .  S
C884       C1446   1.482       .  S
C885       C1426   1.479       .  S
N886        N887   1.324       .  A
N886        N892   1.312       .  A
N886       Mn915   2.203       .  S
N887        C894   1.355       .  A
N888        N890   1.314       .  A
N888        N889   1.316       .  A
N888       Mn904   2.187       .  S
N889        C895   1.348       .  A
N890        N891   1.325       .  A
N890       Mn915   2.210       .  S
N891        C895   1.355       .  A
N892        N893   1.316       .  A
N892       Mn904   2.181       .  S
N893        C894   1.349       .  A
C894       C1479   1.474       .  S
C895       C1469   1.473       .  S
N896        N902   1.312       .  A
N896        N897   1.325       .  A
N896       Mn926   2.228       .  S
N897        C905   1.362       .  A
N898        N899   1.313       .  A
N898        N900   1.313       .  A
N898       Mn904   2.176       .  S
N899        C906   1.347       .  A
N900        N901   1.326       .  A
N900       Mn926   2.231       .  S
N901        C906   1.362       .  A
N902        N903   1.315       .  A
N902       Mn904   2.171       .  S
N903        C905   1.347       .  A
Mn904      Cl928   2.538       .  S
C905       C1509   1.498       .  S
C906       C1519   1.508       .  S
N907        N908   1.317       .  A
N907        N913   1.315       .  A
N907       Mn915   2.185       .  S
N908        C916   1.350       .  A
N909        N911   1.317       .  A
N909        N910   1.322       .  A
N909       Mn927   2.218       .  S
N910        C917   1.356       .  A
N911        N912   1.317       .  A
N911       Mn915   2.193       .  S
N912        C917   1.351       .  A
N913        N914   1.323       .  A
N913       Mn927   2.214       .  S
N914        C916   1.357       .  A
Mn915      Cl928   2.548       .  S
C916       C1396   1.485       .  S
C917       C1416   1.475       .  S
N918        N919   1.322       .  A
N918        N924   1.319       .  A
N918       Mn926   2.201       .  S
N919        C929   1.352       .  A
N920        N921   1.318       .  A
N920        N922   1.318       .  A
N920       Mn927   2.204       .  S
N921        C930   1.351       .  A
N922        N923   1.322       .  A
N922       Mn926   2.213       .  S
N923        C930   1.355       .  A
N924        N925   1.323       .  A
N924       Mn927   2.228       .  S
N925        C929   1.355       .  A
Mn926      Cl928   2.557       .  S
Mn927      Cl928   2.537       .  S
C929       C1409   1.484       .  S
C930       C1389   1.488       .  S
N931        H963   1.038   1_544  S
N931        C936   1.353       .  A
N932        C939   1.351       .  A
N932        C940   1.350       .  A
N933        C937   1.353       .  A
N934        C941   1.351       .  A
N934        C942   1.353       .  A
C935        C943   1.387       .  A
C935        C951   1.420       .  A
C936        C952   1.418   1_545  A
C936        C944   1.388       .  A
C937        C945   1.388       .  A
C937        C954   1.418       .  A
C938        C953   1.416   1_545  A
C938        C946   1.386       .  A
C939        C951   1.416       .  A
C939        C947   1.386       .  A
C940        C954   1.414       .  A
C940        C948   1.386       .  A
C941        C949   1.387       .  A
C941        C952   1.417       .  A
C942        C950   1.385       .  A
C942        C953   1.415       .  A
C943        H955   1.082       .  S
C944        H956   1.082       .  S
C945        H957   1.082       .  S
C946        H958   1.082       .  S
C947        C948   1.379       .  A
C947        H959   1.082       .  S
C948        H960   1.082       .  S
C949        C950   1.378       .  A
C949        H961   1.082       .  S
C950        H962   1.082       .  S
C951       C1379   1.500       .  S
C952       C1356   1.491       .  S
C953       C1346   1.503       .  S
C954       C1369   1.494       .  S
N965        H997   1.032       .  S
N965        C970   1.353       .  A
N965        C969   1.352   1_554  A
N966        C973   1.351       .  A
N966        C974   1.350       .  A
N967        H998   1.033       .  S
N967        C972   1.354       .  A
N967        C971   1.352   1_554  A
N968        C975   1.348       .  A
N968        C976   1.350       .  A
C969        C977   1.386       .  A
C969        C985   1.413       .  A
C970        C986   1.415       .  A
C970        C978   1.388       .  A
C971        C979   1.387       .  A
C971        C988   1.414       .  A
C972        C987   1.417       .  A
C972        C980   1.388       .  A
C973        C985   1.412       .  A
C973        C981   1.385       .  A
C974        C988   1.413       .  A
C974        C982   1.387       .  A
C975        C983   1.386       .  A
C975        C986   1.411       .  A
C976        C984   1.385       .  A
C976        C987   1.411       .  A
C977        C978   1.375   1_556  A
C977        H989   1.083       .  S
C978        H990   1.082       .  S
C979        C980   1.376   1_556  A
C979        H991   1.082       .  S
C980        H992   1.083       .  S
C981        C982   1.379       .  A
C981        H993   1.082       .  S
C982        H994   1.082       .  S
C983        C984   1.378       .  A
C983        H995   1.082       .  S
C984        H996   1.082       .  S
C985       C1329   1.492       .  S
C986       C1309   1.486       .  S
C987       C1316   1.493       .  S
C988       C1339   1.490       .  S
N999       N1000   1.327       .  A
N999       N1005   1.311       .  A
N999      Mn1028   2.228       .  S
N1000      C1007   1.363       .  A
N1001      N1003   1.312       .  A
N1001      N2546   1.314       .  A
N1001     Mn1017   2.181       .  S
N1002      C1008   1.348       .  A
N1002      N2545   1.314       .  A
N1003      N2548   1.326       .  A
N1003     Mn1028   2.229       .  S
N1004      C1008   1.362       .  A
N1004      N2547   1.326       .  A
N1005      N1006   1.312       .  A
N1005     Mn1017   2.171       .  S
N1006      C1007   1.346       .  A
C1007      C1336   1.509       .  S
C1008      C1326   1.512       .  S
N1009      N1015   1.313       .  A
N1009      N2554   1.326       .  A
N1009     Mn1039   2.218       .  S
N1010      C1018   1.357       .  A
N1010      N2553   1.326       .  A
N1011      N1012   1.318       .  A
N1011      N1013   1.315       .  A
N1011     Mn1017   2.189       .  S
N1012      C1019   1.349       .  A
N1013      N1014   1.327       .  A
N1013     Mn1039   2.231       .  S
N1014      C1019   1.360       .  A
N1015      N2560   1.317       .  A
N1015     Mn1017   2.180       .  S
N1016      C1018   1.349       .  A
N1016      N2559   1.317       .  A
Mn1017    Cl1041   2.530       .  S
C1018      C1366   1.480       .  S
C1019      C1376   1.487       .  S
N1020      N1021   1.321       .  A
N1020      N1026   1.318       .  A
N1020     Mn2572   2.205   1_455  S
N1021      C1029   1.353       .  A
N1022      N1024   1.318       .  A
N1022      N1023   1.318       .  A
N1022     Mn1040   2.198       .  S
N1023      C1030   1.351       .  A
N1024      N1025   1.321       .  A
N1024     Mn1028   2.215       .  S
N1025      C1030   1.356       .  A
N1026      N1027   1.322       .  A
N1026     Mn2584   2.218   1_455  S
N1027      C1029   1.354       .  A
Mn1028     N2564   2.205       .  S
Mn1028    Cl1041   2.565       .  S
C1029      C1279   1.484       .  S
C1030      C1296   1.486       .  S
N1031      N1032   1.320       .  A
N1031      N1037   1.316       .  A
N1031     Mn1039   2.205       .  S
N1032      C1042   1.355       .  A
N1033      N1034   1.321       .  A
N1033      N1035   1.316       .  A
N1033     Mn2584   2.211   1_455  S
N1034      C1043   1.355       .  A
N1035      N1036   1.318       .  A
N1035     Mn2583   2.199   1_455  S
N1036      C1043   1.352       .  A
N1037      N1038   1.321       .  A
N1037     Mn1040   2.210       .  S
N1038      C1042   1.354       .  A
Mn1039     N2579   2.199       .  S
Mn1039    Cl1041   2.558       .  S
Mn1040     N2570   2.218       .  S
Mn1040     N2577   2.211       .  S
Mn1040    Cl1041   2.532       .  S
C1042      C1286   1.493       .  S
C1043      C1266   1.473       .  S
N1044      H1076   1.041       .  S
N1044      C1049   1.350       .  A
N1044      C1048   1.353       .  A
N1045      C1052   1.350       .  A
N1045      C1053   1.348       .  A
N1046      H1077   1.041       .  S
N1046      C1051   1.353       .  A
N1046      C1050   1.352       .  A
N1047      C1054   1.348       .  A
N1047      C1055   1.349       .  A
C1048      C1056   1.387       .  A
C1048      C1064   1.416       .  A
C1049      C1065   1.412       .  A
C1049      C1057   1.386       .  A
C1050      C1058   1.388       .  A
C1050      C1067   1.417       .  A
C1051      C1066   1.414       .  A
C1051      C1059   1.386       .  A
C1052      C1064   1.413       .  A
C1052      C1060   1.386       .  A
C1053      C1067   1.411       .  A
C1053      C1061   1.387       .  A
C1054      C1062   1.386       .  A
C1054      C1065   1.407       .  A
C1055      C1063   1.386       .  A
C1055      C1066   1.409       .  A
C1056      C1057   1.379       .  A
C1056      H1068   1.082       .  S
C1057      H1069   1.082       .  S
C1058      C1059   1.380       .  A
C1058      H1070   1.082       .  S
C1059      H1071   1.082       .  S
C1060      C1061   1.377       .  A
C1060      H1072   1.082       .  S
C1061      H1073   1.082       .  S
C1062      C1063   1.373       .  A
C1064      C1276   1.498       .  S
C1065      C1269   1.482       .  S
C1066      C1386   1.491       .  S
C1067      C1399   1.489       .  S
N1078      H1110   1.041       .  S
N1078      C1083   1.351       .  A
N1078      C1082   1.351       .  A
N1079      C1086   1.351       .  A
N1079      C1087   1.349       .  A
N1080      H1111   1.039       .  S
N1080      C1085   1.355       .  A
N1080      C1084   1.354       .  A
N1081      C1088   1.350       .  A
N1081      C1089   1.351       .  A
C1082      C1090   1.386       .  A
C1082      C1098   1.410       .  A
C1083      C1099   1.410       .  A
C1083      C1091   1.387       .  A
C1084      C1092   1.387       .  A
C1084      C1101   1.420       .  A
C1085      C1100   1.421       .  A
C1085      C1093   1.387       .  A
C1086      C1098   1.410       .  A
C1086      C1094   1.385       .  A
C1087      C1101   1.415       .  A
C1087      C1095   1.388       .  A
C1088      C1096   1.386       .  A
C1088      C1099   1.414       .  A
C1089      C1097   1.387       .  A
C1089      C1100   1.415       .  A
C1090      C1091   1.375       .  A
C1090      H1102   1.082       .  S
C1091      H1103   1.082       .  S
C1092      C1093   1.380       .  A
C1094      C1095   1.376       .  A
C1094      H1106   1.082       .  S
C1095      H1107   1.082       .  S
C1096      C1097   1.376       .  A
C1096      H1108   1.082       .  S
C1097      H1109   1.082       .  S
C1098      C1299   1.490       .  S
C1099      C1419   1.488       .  S
C1100      C1406   1.499       .  S
C1101      C1289   1.496       .  S
N1112      H1144   1.037       .  S
N1112      C1117   1.354       .  A
N1112      C1116   1.357       .  A
N1113      C1120   1.348       .  A
N1113      C1121   1.348       .  A
N1114      H1145   1.038       .  S
N1114      C1119   1.350       .  A
N1114      C1118   1.350       .  A
N1115      C1122   1.351       .  A
N1115      C1123   1.354       .  A
C1116      C1124   1.384       .  A
C1116      C1132   1.418       .  A
C1117      C1133   1.425       .  A
C1117      C1125   1.390       .  A
C1118      C1126   1.386       .  A
C1118      C1135   1.409       .  A
C1119      C1134   1.413       .  A
C1119      C1127   1.388       .  A
C1120      C1132   1.408       .  A
C1120      C1128   1.386       .  A
C1121      C1135   1.409       .  A
C1121      C1129   1.387       .  A
C1122      C1130   1.389       .  A
C1122      C1133   1.420       .  A
C1123      C1131   1.384       .  A
C1123      C1134   1.416       .  A
C1124      C1125   1.374       .  A
C1124      H1136   1.082       .  S
C1125      H1137   1.081       .  S
C1126      C1127   1.376       .  A
C1126      H1138   1.082       .  S
C1127      H1139   1.082       .  S
C1128      C1129   1.370       .  A
C1128      H1140   1.082       .  S
C1129      H1141   1.082       .  S
C1130      C1131   1.371       .  A
C1132      C1259   1.494       .  S
C1133      C1249   1.495       .  S
C1134      C1429   1.494       .  S
C1135      C1436   1.476       .  S
N1146      H1178   1.036       .  S
N1146      C1151   1.356       .  A
N1146      C1150   1.356       .  A
N1147      C1154   1.349       .  A
N1147      C1155   1.351       .  A
N1148      H1179   1.037       .  S
N1148      C1153   1.351       .  A
N1148      C1152   1.353       .  A
N1149      C1156   1.353       .  A
N1149      C1157   1.354       .  A
C1150      C1158   1.386       .  A
C1150      C1166   1.418       .  A
C1151      C1167   1.424       .  A
C1151      C1159   1.389       .  A
C1152      C1160   1.385       .  A
C1152      C1169   1.411       .  A
C1153      C1168   1.415       .  A
C1153      C1161   1.389       .  A
C1154      C1166   1.411       .  A
C1154      C1162   1.387       .  A
C1155      C1169   1.411       .  A
C1155      C1163   1.385       .  A
C1156      C1164   1.387       .  A
C1156      C1167   1.420       .  A
C1157      C1165   1.386       .  A
C1157      C1168   1.419       .  A
C1158      C1159   1.372       .  A
C1160      C1161   1.373       .  A
C1160      H1172   1.082       .  S
C1161      H1173   1.082       .  S
C1162      C1163   1.373       .  A
C1162      H1174   1.082       .  S
C1163      H1175   1.082       .  S
C1164      C1165   1.377       .  A
C1164      H1176   1.082       .  S
C1165      H1177   1.082       .  S
C1166      C1449   1.491       .  S
C1167      C1229   1.500       .  S
C1168      C1239   1.492       .  S
C1169      C1459   1.491       .  S
N1180      N1181   1.325       .  A
N1180      N1186   1.314       .  A
N1180     Mn1209   2.214       .  S
N1181      C1188   1.355       .  A
N1182      N1184   1.314       .  A
N1182      N2727   1.318       .  A
N1182     Mn1198   2.196       .  S
N1183      C1189   1.351       .  A
N1183      N2726   1.318       .  A
N1184      N2729   1.324       .  A
N1184     Mn1209   2.210       .  S
N1185      C1189   1.356       .  A
N1185      N2728   1.324       .  A
N1186      N1187   1.318       .  A
N1186     Mn1198   2.192       .  S
N1187      C1188   1.352       .  A
C1188      C1319   1.481       .  S
C1189      C1306   1.482       .  S
N1190      N1196   1.312       .  A
N1190      N2735   1.328       .  A
N1190     Mn1220   2.232       .  S
N1191      C1199   1.363       .  A
N1191      N2734   1.328       .  A
N1192      N1193   1.318       .  A
N1192      N1194   1.312       .  A
N1192     Mn1198   2.202       .  S
N1193      C1200   1.353       .  A
N1194      N1195   1.323       .  A
N1194     Mn1220   2.213       .  S
N1195      C1200   1.358       .  A
N1196      N2741   1.314       .  A
N1196     Mn1198   2.180       .  S
N1197      C1199   1.348       .  A
N1197      N2740   1.314       .  A
Mn1198    Cl1222   2.543       .  S
C1199      C1349   1.511       .  S
C1200      C1359   1.512       .  S
N1201      N1202   1.321       .  A
N1201      N1207   1.317       .  A
N1201     Mn2753   2.214   1_455  S
N1202      C1210   1.355       .  A
N1203      N1205   1.316       .  A
N1203      N1204   1.326       .  A
N1203     Mn1221   2.241       .  S
N1204      C1211   1.361       .  A
N1205      N1206   1.315       .  A
N1205     Mn1209   2.178       .  S
N1206      C1211   1.347       .  A
N1207      N1208   1.321       .  A
N1207     Mn2765   2.210   1_455  S
N1208      C1210   1.354       .  A
Mn1209     N2745   2.214       .  S
Mn1209    Cl1222   2.548       .  S
C1210      C1256   1.488       .  S
C1211      C1236   1.478       .  S
N1212      N1213   1.322       .  A
N1212      N1218   1.318       .  A
N1212     Mn1220   2.221       .  S
N1213      C1223   1.355       .  A
N1214      N1215   1.322       .  A
N1214      N1216   1.317       .  A
N1214     Mn2765   2.231   1_455  S
N1215      C1224   1.357       .  A
N1216      N1217   1.319       .  A
N1216     Mn2764   2.196   1_455  S
N1217      C1224   1.352       .  A
N1218      N1219   1.322       .  A
N1218     Mn1221   2.213       .  S
N1219      C1223   1.354       .  A
Mn1220     N2760   2.196       .  S
Mn1220    Cl1222   2.554       .  S
Mn1221     N2751   2.210       .  S
Mn1221     N2758   2.231       .  S
Mn1221    Cl1222   2.552       .  S
C1223      C1226   1.487       .  S
C1224      C1246   1.478       .  S
C1225      C1230   1.414       .  A
C1226      C1227   1.413       .  A
C1227     Br1234   1.929       .  S
C1228      C1229   1.412       .  A
C1228     Br1233   1.934       .  S
C1229      C1230   1.412       .  A
C1230     Br1231   1.927       .  S
C1235      C1236   1.413       .  A
C1235      C1240   1.406       .  A
C1235     Br1242   1.930       .  S
C1236      C1237   1.408       .  A
C1237      C1238   1.411       .  A
C1237     Br1244   1.928       .  S
C1238      C1239   1.412       .  A
C1238     Br1243   1.929       .  S
C1239      C1240   1.408       .  A
C1240     Br1241   1.931       .  S
C1245      C1246   1.408       .  A
C1245     Br1252   1.926       .  S
C1246      C1247   1.409   1_565  A
C1247     Br2798   1.928       .  S
C1248      C1249   1.411       .  A
C1248     Br1253   1.933       .  S
C1249      C1250   1.415       .  A
C1250     Br1251   1.930       .  S
Br1254     C2791   1.928       .  S
C1255      C1256   1.412       .  A
C1255      C1260   1.410       .  A
C1255     Br1262   1.928       .  S
C1256      C1257   1.418       .  A
C1257      C1258   1.409       .  A
C1257     Br1264   1.933       .  S
C1258      C1259   1.410       .  A
C1258     Br1263   1.934       .  S
C1259      C1260   1.408       .  A
C1260     Br1261   1.929       .  S
C1265      C1270   1.408   1_545  A
C1265     Br1272   1.927       .  S
C1266      C1267   1.412       .  A
C1267      C1268   1.403       .  A
C1267     Br1274   1.929       .  S
C1268     Br1273   1.933       .  S
C1269      C1270   1.410       .  A
C1270     Br1271   1.929       .  S
C1275      C1276   1.414       .  A
C1275      C1280   1.409       .  A
C1275     Br1282   1.929       .  S
C1276      C1277   1.412       .  A
C1277      C1278   1.410       .  A
C1277     Br1284   1.934       .  S
C1278      C1279   1.416       .  A
C1278     Br2827   1.932       .  S
C1279      C1280   1.408       .  A
C1280     Br1281   1.930       .  S
Br1283     C2822   1.932       .  S
C1285      C1286   1.415       .  A
C1285     Br1292   1.934       .  S
C1286      C1287   1.420       .  A
C1287     Br1294   1.933       .  S
C1288      C1289   1.409   1_545  A
C1288     Br1293   1.935   1_545  S
C1289      C1290   1.411       .  A
C1290     Br1291   1.931       .  S
C1295      C1296   1.412       .  A
C1295      C1300   1.408       .  A
C1295     Br1302   1.929       .  S
C1296      C1297   1.420       .  A
C1297      C1298   1.407       .  A
C1297     Br1304   1.936       .  S
C1298      C1299   1.409       .  A
C1298     Br1303   1.936       .  S
C1299      C1300   1.409       .  A
C1300     Br1301   1.930       .  S
C1305      C1306   1.413       .  A
C1305      C1310   1.405       .  A
C1305     Br1312   1.928       .  S
C1306      C1307   1.412       .  A
C1307      C1308   1.410       .  A
C1307     Br1314   1.929       .  S
C1308      C1309   1.409       .  A
C1308     Br1313   1.930       .  S
C1309      C1310   1.406       .  A
C1310     Br1311   1.932       .  S
C1315      C1316   1.412       .  A
C1315      C1320   1.410       .  A
C1315     Br1322   1.930       .  S
C1316      C1317   1.410       .  A
C1317      C1318   1.407       .  A
C1317     Br1324   1.928       .  S
C1318      C1319   1.409       .  A
C1318     Br1323   1.931       .  S
C1319      C1320   1.409       .  A
C1320     Br1321   1.927       .  S
C1325      C1326   1.428       .  A
C1325      C1330   1.415       .  A
C1325     Br1332   1.933       .  S
C1326      C1327   1.433       .  A
C1327      C1328   1.408       .  A
C1327     Br1334   1.941       .  S
C1328      C1329   1.403       .  A
C1328     Br1333   1.940       .  S
C1329      C1330   1.404       .  A
C1330     Br1331   1.931       .  S
C1335      C1336   1.434       .  A
C1335      C1340   1.407       .  A
C1335     Br1342   1.942       .  S
C1336      C1337   1.426       .  A
C1337      C1338   1.413       .  A
C1337     Br1344   1.930       .  S
C1338      C1339   1.404       .  A
C1338     Br1343   1.932       .  S
C1339      C1340   1.403       .  A
C1340     Br1341   1.940       .  S
C1345      C1346   1.410       .  A
C1345      C1350   1.418       .  A
C1345     Br1352   1.932   1_565  S
C1346      C1347   1.408       .  A
C1347      C1348   1.408       .  A
C1347     Br1354   1.939       .  S
C1348      C1349   1.429       .  A
C1348     Br1353   1.940       .  S
C1349      C1350   1.425       .  A
C1350     Br1351   1.933       .  S
C1355      C1356   1.404       .  A
C1355      C1360   1.414       .  A
C1356      C1357   1.402       .  A
C1357      C1358   1.408       .  A
C1357     Br1364   1.938       .  S
C1358      C1359   1.431       .  A
C1358     Br1363   1.937       .  S
C1359      C1360   1.430       .  A
C1365      C1366   1.409       .  A
C1365      C1370   1.410       .  A
C1366      C1367   1.412       .  A
C1367      C1368   1.407       .  A
C1367     Br1374   1.930       .  S
C1368      C1369   1.410       .  A
C1368     Br1373   1.931       .  S
C1369      C1370   1.413       .  A
C1375      C1376   1.413       .  A
C1375      C1380   1.410       .  A
C1375     Br1382   1.931       .  S
C1376      C1377   1.410       .  A
C1377      C1378   1.413       .  A
C1377     Br1384   1.928       .  S
C1378      C1379   1.413       .  A
C1378     Br1383   1.930       .  S
C1379      C1380   1.411       .  A
C1380     Br1381   1.930       .  S
C1385      C1386   1.409       .  A
C1385     Br1392   1.935       .  S
C1386      C1387   1.408       .  A
C1387     Br1394   1.930       .  S
C1388      C1389   1.413       .  A
C1388     Br1393   1.931       .  S
C1389      C1390   1.421       .  A
C1390     Br1391   1.937       .  S
C1395      C1396   1.415       .  A
C1395      C1400   1.407       .  A
C1395     Br1402   1.933       .  S
C1396      C1397   1.417       .  A
C1397      C1398   1.408       .  A
C1397     Br1404   1.933       .  S
C1398      C1399   1.410       .  A
C1398     Br1403   1.932       .  S
C1399      C1400   1.407       .  A
C1400     Br1401   1.931       .  S
C1405      C1406   1.413       .  A
C1405     Br1412   1.932       .  S
C1406      C1407   1.412       .  A
C1407     Br1414   1.928       .  S
C1408      C1409   1.407       .  A
C1408     Br1413   1.928       .  S
C1409      C1410   1.414       .  A
C1410     Br1411   1.931       .  S
C1415      C1416   1.407       .  A
C1415      C1420   1.410       .  A
C1415     Br1422   1.928       .  S
C1416      C1417   1.413       .  A
C1417      C1418   1.403       .  A
C1417     Br1424   1.930       .  S
C1418      C1419   1.407       .  A
C1418     Br1423   1.933       .  S
C1419      C1420   1.413       .  A
C1420     Br1421   1.928       .  S
C1425      C1430   1.406       .  A
C1425     Br1432   1.934       .  S
C1426      C1427   1.407       .  A
C1427      C1428   1.409       .  A
C1427     Br1434   1.929       .  S
C1428     Br1433   1.929       .  S
C1429      C1430   1.412       .  A
C1430     Br1431   1.937       .  S
C1435      C1436   1.408       .  A
C1435      C1440   1.405       .  A
C1435     Br1442   1.927       .  S
C1436      C1437   1.406       .  A
C1437      C1438   1.401       .  A
C1437     Br1444   1.934       .  S
C1438      C1439   1.412       .  A
C1438     Br1443   1.931       .  S
C1439      C1440   1.405       .  A
C1440     Br1441   1.927       .  S
C1445      C1446   1.418       .  A
C1445     Br1452   1.933       .  S
C1447      C1448   1.408       .  A
C1447     Br1454   1.931       .  S
C1448      C1449   1.411       .  A
C1448     Br1453   1.930       .  S
C1449      C1450   1.407       .  A
C1450     Br1451   1.933       .  S
C1455      C1456   1.422       .  A
C1455      C1460   1.408       .  A
C1455     Br1462   1.935       .  S
C1456      C1457   1.415       .  A
C1457      C1458   1.409       .  A
C1457     Br1464   1.932       .  S
C1458      C1459   1.408       .  A
C1458     Br1463   1.930       .  S
C1459      C1460   1.407       .  A
C1460     Br1461   1.935       .  S
C1465      C1466   1.413       .  A
C1465      C1470   1.407       .  A
C1465     Br1472   1.930       .  S
C1466      C1467   1.413       .  A
C1467      C1468   1.408       .  A
C1467     Br1474   1.931       .  S
C1468      C1469   1.408       .  A
C1468     Br1473   1.932       .  S
C1469      C1470   1.405       .  A
C1470     Br1471   1.927       .  S
C1475      C1476   1.408       .  A
C1475      C1480   1.403       .  A
C1475     Br1482   1.931       .  S
C1476      C1477   1.410       .  A
C1477      C1478   1.409       .  A
C1477     Br1484   1.929       .  S
C1478      C1479   1.409       .  A
C1478     Br1483   1.928       .  S
C1479      C1480   1.409       .  A
C1480     Br1481   1.930       .  S
C1485      C1486   1.416       .  A
C1485      C1490   1.413       .  A
C1485     Br1492   1.928       .  S
C1486      C1487   1.412       .  A
C1487      C1488   1.402       .  A
C1487     Br1494   1.921       .  S
C1488      C1489   1.407       .  A
C1488     Br1493   1.934       .  S
C1489      C1490   1.409       .  A
C1490     Br1491   1.928       .  S
C1495      C1496   1.405       .  A
C1495      C1500   1.403       .  A
C1495     Br1502   1.936       .  S
C1496      C1497   1.406       .  A
C1497      C1498   1.410       .  A
C1497     Br1504   1.931       .  S
C1498      C1499   1.420       .  A
C1498     Br1503   1.932       .  S
C1499      C1500   1.419       .  A
C1500     Br1501   1.935       .  S
C1505      C1506   1.401       .  A
C1505      C1510   1.407       .  A
C1505     Br1512   1.937       .  S
C1506      C1507   1.407       .  A
C1507      C1508   1.409       .  A
C1507     Br1514   1.933       .  S
C1508      C1509   1.419       .  A
C1508     Br1513   1.934       .  S
C1509      C1510   1.428       .  A
C1510     Br1511   1.932       .  S
C1515      C1516   1.403       .  A
C1515      C1520   1.407       .  A
C1515     Br1522   1.939       .  S
C1516      C1517   1.405       .  A
C1517      C1518   1.415       .  A
C1517     Br1524   1.930       .  S
C1518      C1519   1.426       .  A
C1518     Br1523   1.933       .  S
C1519      C1520   1.432       .  A
C1520     Br1521   1.941       .  S
C1525      C1526   1.407       .  A
C1525      C1530   1.413       .  A
C1526      C1527   1.407       .  A
C1527      C1528   1.406       .  A
C1527     Br1534   1.936       .  S
C1528      C1529   1.423       .  A
C1528     Br1533   1.936       .  S
C1529      C1530   1.424       .  A
C1535      C1536   1.401       .  A
C1535      C1540   1.404       .  A
C1535     Br1542   1.929       .  S
C1536      C1537   1.406       .  A
C1537      C1538   1.413       .  A
C1537     Br1544   1.929       .  S
C1538      C1539   1.424       .  A
C1538     Br1543   1.933       .  S
C1539      C1540   1.422       .  A
C1540     Br1541   1.934   1_565  S
N1545      H1577   1.040   1_545  S
N1545      C2322   1.352   1_545  A
N1545      C1549   1.353       .  A
N1546      C1554   1.347       .  A
N1547      H1578   1.043       .  S
N1547      C1552   1.354       .  A
N1547      C2323   1.355       .  A
N1548      C1556   1.349       .  A
C1549      C1557   1.388       .  A
C1549      C1565   1.416       .  A
C1550      N2317   1.352       .  A
C1550      C1566   1.411       .  A
C1550      C1558   1.386       .  A
C1551      N2319   1.355       .  A
C1551      C1559   1.384   1_545  A
C1551      C1568   1.412       .  A
C1552      C1567   1.418       .  A
C1552      C1560   1.388       .  A
C1553      C1565   1.412       .  A
C1553      C1561   1.387       .  A
C1554      C1568   1.408       .  A
C1554      C1562   1.385       .  A
C1555      C1563   1.384       .  A
C1555      C1566   1.410       .  A
C1556      C1564   1.388       .  A
C1556      C1567   1.413       .  A
C1557      C2330   1.370       .  A
C1557      H1569   1.082       .  S
C1558      C2329   1.370       .  A
C1558      H1570   1.083       .  S
C1559      C2332   1.374       .  A
C1559      H1571   1.082       .  S
C1560      C2331   1.374       .  A
C1560      H1572   1.082       .  S
C1561      H1573   1.082       .  S
C1562      H1574   1.082       .  S
C1563      H1575   1.082       .  S
C1564      H1576   1.082       .  S
C1565      C2278   1.487       .  S
C1566      C2298   1.493       .  S
C1567      C2311   1.531       .  S
C1568      C2288   1.490       .  S
N1579      H1611   1.034       .  S
N1579      C1584   1.353       .  A
N1579      C1583   1.351       .  A
N1580      C1588   1.352       .  A
N1581      H1612   1.034       .  S
N1581      C1586   1.355       .  A
N1581      C1585   1.354       .  A
N1582      C1590   1.349       .  A
C1583      C1591   1.387       .  A
C1583      C1599   1.412       .  A
C1584      C1600   1.416       .  A
C1584      C1592   1.388       .  A
C1585      C1593   1.387       .  A
C1585      C1602   1.418       .  A
C1586      C1601   1.421       .  A
C1586      C1594   1.388       .  A
C1587      C1599   1.413       .  A
C1587      C1595   1.386       .  A
C1588      C1602   1.415       .  A
C1588      C1596   1.387       .  A
C1589      C1597   1.385       .  A
C1589      C1600   1.409       .  A
C1590      C1598   1.387       .  A
C1590      C1601   1.412       .  A
C1591      C1592   1.373       .  A
C1591      H1603   1.082       .  S
C1592      H1604   1.082       .  S
C1593      C1594   1.375       .  A
C1593      H1605   1.081       .  S
C1594      H1606   1.082       .  S
C1595      H1607   1.082       .  S
C1596      H1608   1.082       .  S
C1597      H1609   1.082       .  S
C1598      H1610   1.082       .  S
C1599      C2268   1.485       .  S
C1600      C2248   1.486       .  S
C1601      C2238   1.494       .  S
C1602      C2261   1.491       .  S
N1613      N1614   1.322       .  A
N1613      N1619   1.313       .  A
N1613     Mn1642   2.203       .  S
N1614      C1621   1.356       .  A
N1615      N1617   1.313       .  A
N1615      N1616   1.319       .  A
N1615     Mn1631   2.199       .  S
N1616      C1622   1.354       .  A
N1617      N1618   1.323       .  A
N1617     Mn1642   2.205       .  S
N1618      C1622   1.354       .  A
N1619      N1620   1.316       .  A
N1619     Mn1631   2.188       .  S
N1620      C1621   1.351       .  A
C1621      C2271   1.488       .  S
C1622      C2258   1.490       .  S
N1623      N1629   1.312       .  A
N1623      N1624   1.322       .  A
N1623     Mn1653   2.207       .  S
N1624      C1632   1.356       .  A
N1625      N1626   1.319       .  A
N1625      N1627   1.316       .  A
N1625     Mn1631   2.202       .  S
N1626      C1633   1.351       .  A
N1627      N1628   1.321       .  A
N1627     Mn1653   2.200       .  S
N1628      C1633   1.352       .  A
N1629      N1630   1.317       .  A
N1629     Mn1631   2.189       .  S
N1630      C1632   1.352       .  A
Mn1631    Cl1655   2.550       .  S
C1632      C2301   1.500       .  S
C1633      C2308   1.471       .  S
N1634      N1635   1.315       .  A
N1634      N1640   1.315       .  A
N1634     Mn1642   2.171       .  S
N1635      C1643   1.347       .  A
N1636      N1638   1.316       .  A
N1636      N1637   1.320       .  A
N1636     Mn1654   2.207       .  S
N1637      C1644   1.353       .  A
N1638      N1639   1.321       .  A
N1638     Mn1642   2.204       .  S
N1639      C1644   1.355       .  A
N1640      N1641   1.321       .  A
N1640     Mn1654   2.214       .  S
N1641      C1643   1.357       .  A
Mn1642    Cl1655   2.538       .  S
C1643      C2211   1.465       .  S
C1644      C2228   1.490       .  S
N1645      N1646   1.320       .  A
N1645      N1651   1.317       .  A
N1645     Mn1653   2.209       .  S
N1646      C1656   1.353       .  A
N1647      N1648   1.322       .  A
N1647      N1649   1.317       .  A
N1647     Mn1654   2.216       .  S
N1648      C1657   1.356       .  A
N1649      N1650   1.317       .  A
N1649     Mn1653   2.186       .  S
N1650      C1657   1.349       .  A
N1651      N1652   1.320       .  A
N1651     Mn1654   2.197       .  S
N1652      C1656   1.352       .  A
Mn1653    Cl1655   2.539       .  S
Mn1654    Cl1655   2.544       .  S
C1656      C2218   1.482       .  S
C1657      C2198   1.479       .  S
N1658      N1659   1.324       .  A
N1658      N1664   1.312       .  A
N1658     Mn1687   2.203       .  S
N1659      C1666   1.355       .  A
N1660      N1662   1.314       .  A
N1660      N1661   1.316       .  A
N1660     Mn1676   2.187       .  S
N1661      C1667   1.348       .  A
N1662      N1663   1.325       .  A
N1662     Mn1687   2.211       .  S
N1663      C1667   1.355       .  A
N1664      N1665   1.316       .  A
N1664     Mn1676   2.181       .  S
N1665      C1666   1.350       .  A
C1666      C2251   1.474       .  S
C1667      C2241   1.473       .  S
N1668      N1674   1.312       .  A
N1668      N1669   1.325       .  A
N1668     Mn1698   2.228       .  S
N1669      C1677   1.362       .  A
N1670      N1671   1.313       .  A
N1670      N1672   1.313       .  A
N1670     Mn1676   2.176       .  S
N1671      C1678   1.347       .  A
N1672      N1673   1.326       .  A
N1672     Mn1698   2.231       .  S
N1673      C1678   1.362       .  A
N1674      N1675   1.315       .  A
N1674     Mn1676   2.171       .  S
N1675      C1677   1.347       .  A
Mn1676    Cl1700   2.538       .  S
C1677      C2281   1.498       .  S
C1678      C2291   1.508       .  S
N1679      N1680   1.317       .  A
N1679      N1685   1.315       .  A
N1679     Mn1687   2.185       .  S
N1680      C1688   1.350       .  A
N1681      N1683   1.317       .  A
N1681      N1682   1.322       .  A
N1681     Mn1699   2.218       .  S
N1682      C1689   1.356       .  A
N1683      N1684   1.317       .  A
N1683     Mn1687   2.193       .  S
N1684      C1689   1.351       .  A
N1685      N1686   1.323       .  A
N1685     Mn1699   2.214       .  S
N1686      C1688   1.357       .  A
Mn1687    Cl1700   2.548       .  S
C1688      C2168   1.485       .  S
C1689      C2188   1.475       .  S
N1690      N1691   1.322       .  A
N1690      N1696   1.319       .  A
N1690     Mn1698   2.201       .  S
N1691      C1701   1.352       .  A
N1692      N1693   1.318       .  A
N1692      N1694   1.318       .  A
N1692     Mn1699   2.204       .  S
N1693      C1702   1.351       .  A
N1694      N1695   1.322       .  A
N1694     Mn1698   2.213       .  S
N1695      C1702   1.355       .  A
N1696      N1697   1.323       .  A
N1696     Mn1699   2.228       .  S
N1697      C1701   1.355       .  A
Mn1698    Cl1700   2.557       .  S
Mn1699    Cl1700   2.537       .  S
C1701      C2181   1.484       .  S
C1702      C2161   1.488       .  S
N1703      H1735   1.038   1_554  S
N1703      C1708   1.353       .  A
N1703      C2479   1.356   1_554  A
N1704      C1711   1.351       .  A
N1704      C1712   1.350       .  A
N1705      H2508   1.040   1_545  S
N1705      C2482   1.355   1_556  A
N1705      C1709   1.353       .  A
N1706      C1713   1.351       .  A
N1706      C1714   1.353       .  A
C1707      N2475   1.356   1_556  A
C1707      C1715   1.387       .  A
C1707      C1723   1.420       .  A
C1708      C1724   1.418       .  A
C1708      C1716   1.388       .  A
C1709      C1717   1.388       .  A
C1709      C1726   1.418       .  A
C1710      N2477   1.355   1_554  A
C1710      C1725   1.416       .  A
C1710      C1718   1.386       .  A
C1711      C1723   1.416       .  A
C1711      C1719   1.386       .  A
C1712      C1726   1.414       .  A
C1712      C1720   1.386       .  A
C1713      C1721   1.387       .  A
C1713      C1724   1.416       .  A
C1714      C1722   1.385       .  A
C1714      C1725   1.415       .  A
C1715      C2488   1.376   1_556  A
C1715      H1727   1.082       .  S
C1716      C2487   1.376   1_554  A
C1716      H1728   1.082       .  S
C1717      C2490   1.375   1_556  A
C1717      H1729   1.082       .  S
C1718      C2489   1.375   1_554  A
C1718      H1730   1.082       .  S
C1719      C1720   1.379       .  A
C1719      H1731   1.082       .  S
C1720      H1732   1.082       .  S
C1721      C1722   1.378       .  A
C1721      H1733   1.082       .  S
C1722      H1734   1.082       .  S
C1723      C2151   1.500       .  S
C1724      C2128   1.491       .  S
C1725      C2118   1.502       .  S
C1726      C2141   1.494       .  S
H1736      N2477   1.040       .  S
N1737      H1769   1.032       .  S
N1737      C1742   1.353       .  A
N1737      C1741   1.352   1_554  A
N1738      C1745   1.351       .  A
N1738      C1746   1.350       .  A
N1739      H1770   1.033       .  S
N1739      C1744   1.354       .  A
N1739      C1743   1.352   1_554  A
N1740      C1747   1.348       .  A
N1740      C1748   1.350       .  A
C1741      C1749   1.386       .  A
C1741      C1757   1.413       .  A
C1742      C1758   1.415       .  A
C1742      C1750   1.388       .  A
C1743      C1751   1.387       .  A
C1743      C1760   1.414       .  A
C1744      C1759   1.417       .  A
C1744      C1752   1.388       .  A
C1745      C1757   1.412       .  A
C1745      C1753   1.385       .  A
C1746      C1760   1.413       .  A
C1746      C1754   1.387       .  A
C1747      C1755   1.386       .  A
C1747      C1758   1.411       .  A
C1748      C1756   1.385       .  A
C1748      C1759   1.411       .  A
C1749      C1750   1.375   1_556  A
C1749      H1761   1.083       .  S
C1750      H1762   1.082       .  S
C1751      C1752   1.376   1_556  A
C1751      H1763   1.082       .  S
C1752      H1764   1.083       .  S
C1753      C1754   1.379       .  A
C1753      H1765   1.082       .  S
C1754      H1766   1.082       .  S
C1755      C1756   1.378       .  A
C1755      H1767   1.082       .  S
C1756      H1768   1.082       .  S
C1757      C2101   1.492       .  S
C1758      C2081   1.486       .  S
C1759      C2088   1.493       .  S
C1760      C2111   1.490       .  S
N1771      N1772   1.327       .  A
N1771      N1777   1.311       .  A
N1771     Mn1800   2.228       .  S
N1772      C1779   1.363       .  A
N1773      N1775   1.312       .  A
N1773     Mn1789   2.180   1_455  S
N1774      C1780   1.348       .  A
N1775     Mn1800   2.228   1_455  S
N1776      C1780   1.362       .  A
N1777      N1778   1.312       .  A
N1777     Mn1789   2.171       .  S
N1778      C1779   1.346       .  A
C1779      C2108   1.509       .  S
C1780      C2098   1.512       .  S
N1781      N1787   1.313       .  A
N1781     Mn1811   2.218   1_455  S
N1782      C1790   1.357       .  A
N1783      N1784   1.318       .  A
N1783      N1785   1.314       .  A
N1783     Mn1789   2.189       .  S
N1784      C1791   1.349       .  A
N1785      N1786   1.327       .  A
N1785     Mn1811   2.231       .  S
N1786      C1791   1.360       .  A
N1787     Mn1789   2.180   1_455  S
N1788      C1790   1.349       .  A
Mn1789    Cl1813   2.530       .  S
C1790      C2138   1.481       .  S
C1791      C2148   1.487       .  S
N1792      N1793   1.321       .  A
N1792      N1798   1.318       .  A
N1793      C1801   1.353       .  A
N1794      N1796   1.318       .  A
N1794      N1795   1.318       .  A
N1794     Mn1812   2.198       .  S
N1795      C1802   1.351       .  A
N1796      N1797   1.321       .  A
N1796     Mn1800   2.215       .  S
N1797      C1802   1.356       .  A
N1798      N1799   1.322       .  A
N1799      C1801   1.354       .  A
Mn1800    Cl1813   2.565       .  S
C1801      C2051   1.484       .  S
C1802      C2068   1.486       .  S
N1803      N1804   1.320       .  A
N1803      N1809   1.316       .  A
N1803     Mn1811   2.205       .  S
N1804      C1814   1.355       .  A
N1805      N1806   1.321       .  A
N1805      N1807   1.316       .  A
N1806      C1815   1.355       .  A
N1807      N1808   1.318       .  A
N1808      C1815   1.352       .  A
N1809      N1810   1.321       .  A
N1809     Mn1812   2.210       .  S
N1810      C1814   1.354       .  A
Mn1811    Cl1813   2.558       .  S
Mn1812    Cl1813   2.532       .  S
C1814      C2058   1.493       .  S
C1815      C2038   1.473       .  S
N1816      H1848   1.041       .  S
N1816      C1821   1.350       .  A
N1816      C1820   1.353       .  A
N1817      C1824   1.350       .  A
N1817      C1825   1.348       .  A
N1818      H1849   1.041       .  S
N1818      C1823   1.353       .  A
N1818      C1822   1.352       .  A
N1819      C1826   1.348       .  A
N1819      C1827   1.349       .  A
C1820      C1828   1.387       .  A
C1820      C1836   1.416       .  A
C1821      C1837   1.412       .  A
C1821      C1829   1.386       .  A
C1822      C1830   1.388       .  A
C1822      C1839   1.417       .  A
C1823      C1838   1.414       .  A
C1823      C1831   1.386       .  A
C1824      C1836   1.413       .  A
C1824      C1832   1.386       .  A
C1825      C1839   1.411       .  A
C1825      C1833   1.387       .  A
C1826      C1834   1.386       .  A
C1826      C1837   1.407       .  A
C1827      C1835   1.386       .  A
C1827      C1838   1.409       .  A
C1828      C1829   1.379       .  A
C1828      H1840   1.082       .  S
C1829      H1841   1.082       .  S
C1830      C1831   1.380       .  A
C1830      H1842   1.082       .  S
C1831      H1843   1.082       .  S
C1832      C1833   1.377       .  A
C1832      H1844   1.082       .  S
C1833      H1845   1.082       .  S
C1834      C1835   1.373       .  A
C1834      H2618   1.082       .  S
C1835      H2619   1.082       .  S
C1836      C2048   1.498       .  S
C1837      C2041   1.482       .  S
C1838      C2158   1.491       .  S
C1839      C2171   1.489       .  S
H1846      C2606   1.082   1_545  S
H1847      C2607   1.082   1_545  S
N1850      H1882   1.041       .  S
N1850      C1855   1.351       .  A
N1850      C1854   1.351       .  A
N1851      C1858   1.351       .  A
N1851      C1859   1.349       .  A
N1852      H1883   1.039       .  S
N1852      C1857   1.355       .  A
N1852      C1856   1.354       .  A
N1853      C1860   1.350       .  A
N1853      C1861   1.351       .  A
C1854      C1862   1.386       .  A
C1854      C1870   1.410       .  A
C1855      C1871   1.410       .  A
C1855      C1863   1.387       .  A
C1856      C1864   1.387       .  A
C1856      C1873   1.420       .  A
C1857      C1872   1.421       .  A
C1857      C1865   1.387       .  A
C1858      C1870   1.410       .  A
C1858      C1866   1.385       .  A
C1859      C1873   1.415       .  A
C1859      C1867   1.388       .  A
C1860      C1868   1.386       .  A
C1860      C1871   1.414       .  A
C1861      C1869   1.387       .  A
C1861      C1872   1.415       .  A
C1862      C1863   1.375       .  A
C1862      H1874   1.082       .  S
C1863      H1875   1.082       .  S
C1864      C1865   1.380       .  A
C1864      H2648   1.082       .  S
C1865      H2649   1.082       .  S
C1866      C1867   1.376       .  A
C1866      H1878   1.082       .  S
C1867      H1879   1.082       .  S
C1868      C1869   1.376       .  A
C1868      H1880   1.082       .  S
C1869      H1881   1.082       .  S
C1870      C2071   1.490       .  S
C1871      C2191   1.488       .  S
C1872      C2178   1.498       .  S
C1873      C2061   1.496       .  S
H1876      C2636   1.082   1_545  S
H1877      C2637   1.082       .  S
N1884      H1916   1.037       .  S
N1884      C1889   1.354       .  A
N1884      C1888   1.357       .  A
N1885      C1892   1.348       .  A
N1885      C1893   1.348       .  A
N1886      H1917   1.038       .  S
N1886      C1891   1.350       .  A
N1886      C1890   1.350       .  A
N1887      C1894   1.351       .  A
N1887      C1895   1.354       .  A
C1888      C1896   1.384       .  A
C1888      C1904   1.418       .  A
C1889      C1905   1.425       .  A
C1889      C1897   1.390       .  A
C1890      C1898   1.386       .  A
C1890      C1907   1.409       .  A
C1891      C1906   1.413       .  A
C1891      C1899   1.388       .  A
C1892      C1904   1.408       .  A
C1892      C1900   1.386       .  A
C1893      C1907   1.409       .  A
C1893      C1901   1.387       .  A
C1894      C1902   1.389       .  A
C1894      C1905   1.419       .  A
C1895      C1903   1.384       .  A
C1895      C1906   1.416       .  A
C1896      C1897   1.374       .  A
C1896      H1908   1.082       .  S
C1897      H1909   1.081       .  S
C1898      C1899   1.376       .  A
C1898      H1910   1.082       .  S
C1899      H1911   1.082       .  S
C1900      C1901   1.371       .  A
C1900      H1912   1.082       .  S
C1901      H1913   1.082       .  S
C1902      C1903   1.371       .  A
C1902      H2686   1.081   1_545  S
C1903      H2687   1.082   1_545  S
C1904      C2031   1.494       .  S
C1905      C2021   1.495       .  S
C1906      C2201   1.494       .  S
C1907      C2208   1.476       .  S
H1914      C2674   1.081       .  S
H1915      C2675   1.082       .  S
N1918      H1950   1.036       .  S
N1918      C1923   1.356       .  A
N1918      C1922   1.356       .  A
N1919      C1926   1.349       .  A
N1919      C1927   1.351       .  A
N1920      H1951   1.037       .  S
N1920      C1925   1.351       .  A
N1920      C1924   1.353       .  A
N1921      C1928   1.353       .  A
N1921      C1929   1.354       .  A
C1922      C1930   1.386       .  A
C1922      C1938   1.418       .  A
C1923      C1939   1.424       .  A
C1923      C1931   1.389       .  A
C1924      C1932   1.385       .  A
C1924      C1941   1.411       .  A
C1925      C1940   1.415       .  A
C1925      C1933   1.389       .  A
C1926      C1938   1.411       .  A
C1926      C1934   1.387       .  A
C1927      C1941   1.411       .  A
C1927      C1935   1.385       .  A
C1928      C1936   1.387       .  A
C1928      C1939   1.420       .  A
C1929      C1937   1.386       .  A
C1929      C1940   1.419       .  A
C1930      C1931   1.372       .  A
C1930      H2714   1.082   1_545  S
C1931      H2715   1.082   1_545  S
C1932      C1933   1.373       .  A
C1932      H1944   1.082       .  S
C1933      H1945   1.082       .  S
C1934      C1935   1.373       .  A
C1934      H1946   1.082       .  S
C1935      H1947   1.082       .  S
C1936      C1937   1.377       .  A
C1936      H1948   1.082       .  S
C1937      H1949   1.082       .  S
C1938      C2221   1.491       .  S
C1939      C2001   1.500       .  S
C1940      C2011   1.492       .  S
C1941      C2231   1.491       .  S
H1942      C2702   1.082       .  S
H1943      C2703   1.082       .  S
N1952      N1953   1.325       .  A
N1952      N1958   1.314       .  A
N1952     Mn1981   2.214       .  S
N1953      C1960   1.355       .  A
N1954      N1956   1.314       .  A
N1954     Mn1970   2.196   1_455  S
N1955      C1961   1.351       .  A
N1956     Mn1981   2.210   1_455  S
N1957      C1961   1.356       .  A
N1958      N1959   1.318       .  A
N1958     Mn1970   2.192       .  S
N1959      C1960   1.352       .  A
C1960      C2091   1.480       .  S
C1961      C2078   1.482       .  S
N1962      N1968   1.312       .  A
N1962     Mn1992   2.232   1_455  S
N1963      C1971   1.363       .  A
N1964      N1965   1.318       .  A
N1964      N1966   1.312       .  A
N1964     Mn1970   2.202       .  S
N1965      C1972   1.353       .  A
N1966      N1967   1.323       .  A
N1966     Mn1992   2.213       .  S
N1967      C1972   1.358       .  A
N1968     Mn1970   2.180   1_455  S
N1969      C1971   1.348       .  A
Mn1970    Cl1994   2.543       .  S
C1971      C2121   1.511       .  S
C1972      C2131   1.512       .  S
N1973      N1974   1.321       .  A
N1973      N1979   1.317       .  A
N1974      C1982   1.355       .  A
N1975      N1977   1.316       .  A
N1975      N1976   1.326       .  A
N1975     Mn1993   2.241       .  S
N1976      C1983   1.361       .  A
N1977      N1978   1.315       .  A
N1977     Mn1981   2.178       .  S
N1978      C1983   1.347       .  A
N1979      N1980   1.321       .  A
N1980      C1982   1.354       .  A
Mn1981    Cl1994   2.548       .  S
C1982      C2028   1.488       .  S
C1983      C2008   1.478       .  S
N1984      N1985   1.322       .  A
N1984      N1990   1.318       .  A
N1984     Mn1992   2.220       .  S
N1985      C1995   1.355       .  A
N1986      N1987   1.322       .  A
N1986      N1988   1.317       .  A
N1987      C1996   1.357       .  A
N1988      N1989   1.319       .  A
N1989      C1996   1.351       .  A
N1990      N1991   1.322       .  A
N1990     Mn1993   2.212       .  S
N1991      C1995   1.354       .  A
Mn1992    Cl1994   2.554       .  S
Mn1993    Cl1994   2.552       .  S
C1995      C1998   1.487       .  S
C1996      C2018   1.478       .  S
C1997      C2770   1.411       .  A
C1997      C2002   1.414   1_565  A
C1997     Br2776   1.930       .  S
C1998      C2769   1.411       .  A
C1998      C1999   1.413       .  A
C1999      C2772   1.407       .  A
C1999     Br2006   1.929       .  S
C2000      C2771   1.407   1_545  A
C2000      C2001   1.412       .  A
C2000     Br2005   1.934       .  S
C2001      C2002   1.412       .  A
C2002     Br2003   1.927       .  S
Br2004     C2769   1.930       .  S
C2007      C2008   1.413       .  A
C2007      C2012   1.406       .  A
C2007     Br2014   1.930       .  S
C2008      C2009   1.408       .  A
C2009      C2010   1.411       .  A
C2009     Br2016   1.928       .  S
C2010      C2011   1.412       .  A
C2010     Br2015   1.929       .  S
C2011      C2012   1.408       .  A
C2012     Br2013   1.931       .  S
C2017      C2018   1.408       .  A
C2017      C2794   1.411       .  A
C2017     Br2024   1.926       .  S
C2018      C2019   1.409       .  A
C2019      C2792   1.402       .  A
C2020      C2791   1.402       .  A
C2020      C2021   1.411       .  A
C2020     Br2025   1.933       .  S
C2021      C2022   1.415       .  A
C2022      C2789   1.411   1_545  A
C2022     Br2023   1.930       .  S
C2027      C2028   1.412       .  A
C2027      C2032   1.410       .  A
C2027     Br2034   1.928       .  S
C2028      C2029   1.418       .  A
C2029      C2030   1.409       .  A
C2029     Br2036   1.933       .  S
C2030      C2031   1.411       .  A
C2030     Br2035   1.934       .  S
C2031      C2032   1.408       .  A
C2032     Br2033   1.929       .  S
C2037      C2810   1.407       .  A
C2037      C2042   1.408       .  A
C2037     Br2044   1.927       .  S
C2038      C2809   1.407       .  A
C2038      C2039   1.412       .  A
C2039      C2040   1.403   1_545  A
C2039     Br2046   1.929       .  S
C2040      C2813   1.407       .  A
C2040     Br2045   1.933       .  S
C2041      C2812   1.407       .  A
C2041      C2042   1.410       .  A
C2042     Br2043   1.929       .  S
C2047      C2048   1.414       .  A
C2047      C2052   1.409       .  A
C2047     Br2054   1.929       .  S
C2048      C2049   1.412       .  A
C2049      C2050   1.410       .  A
C2049     Br2056   1.934       .  S
C2050      C2051   1.416       .  A
C2051      C2052   1.408       .  A
C2052     Br2053   1.930       .  S
C2057      C2058   1.415       .  A
C2057      C2834   1.410   1_545  A
C2057     Br2064   1.934       .  S
C2058      C2059   1.420       .  A
C2059      C2832   1.409       .  A
C2059     Br2066   1.933       .  S
C2060      C2831   1.409       .  A
C2060      C2061   1.409       .  A
C2060     Br2065   1.935       .  S
C2061      C2062   1.411       .  A
C2062      C2829   1.410       .  A
C2062     Br2063   1.931       .  S
C2067      C2068   1.412       .  A
C2067      C2072   1.408       .  A
C2067     Br2074   1.929       .  S
C2068      C2069   1.420       .  A
C2069      C2070   1.407       .  A
C2069     Br2076   1.936       .  S
C2070      C2071   1.409       .  A
C2070     Br2075   1.936       .  S
C2071      C2072   1.409       .  A
C2072     Br2073   1.930       .  S
C2077      C2078   1.413       .  A
C2077      C2082   1.405       .  A
C2077     Br2084   1.928       .  S
C2078      C2079   1.412       .  A
C2079      C2080   1.410       .  A
C2079     Br2086   1.929       .  S
C2080      C2081   1.409       .  A
C2080     Br2085   1.930       .  S
C2081      C2082   1.406       .  A
C2082     Br2083   1.932       .  S
C2087      C2088   1.412       .  A
C2087      C2092   1.410       .  A
C2087     Br2094   1.930       .  S
C2088      C2089   1.410       .  A
C2089      C2090   1.407       .  A
C2089     Br2096   1.928       .  S
C2090      C2091   1.409       .  A
C2090     Br2095   1.931       .  S
C2091      C2092   1.409       .  A
C2092     Br2093   1.927       .  S
C2097      C2098   1.428       .  A
C2097      C2102   1.415       .  A
C2097     Br2104   1.933       .  S
C2098      C2099   1.433       .  A
C2099      C2100   1.408       .  A
C2099     Br2106   1.941       .  S
C2100      C2101   1.403       .  A
C2100     Br2105   1.940       .  S
C2101      C2102   1.404       .  A
C2102     Br2103   1.931       .  S
C2107      C2108   1.434       .  A
C2107      C2112   1.407       .  A
C2107     Br2114   1.942       .  S
C2108      C2109   1.426       .  A
C2109      C2110   1.413       .  A
C2109     Br2116   1.930       .  S
C2110      C2111   1.404       .  A
C2110     Br2115   1.932       .  S
C2111      C2112   1.403       .  A
C2112     Br2113   1.940       .  S
C2117      C2118   1.410       .  A
C2117      C2122   1.418       .  A
C2117     Br2124   1.932       .  S
C2118      C2119   1.408       .  A
C2119      C2120   1.408       .  A
C2119     Br2126   1.939       .  S
C2120      C2121   1.429       .  A
C2120     Br2125   1.940       .  S
C2121      C2122   1.425       .  A
C2122     Br2123   1.933       .  S
C2127      C2128   1.404       .  A
C2127      C2132   1.414       .  A
C2127     Br2906   1.933       .  S
C2128      C2129   1.402       .  A
C2129      C2130   1.408       .  A
C2129     Br2136   1.938       .  S
C2130      C2131   1.431       .  A
C2130     Br2135   1.937       .  S
C2131      C2132   1.430       .  A
C2132     Br2905   1.935       .  S
Br2133     C2904   1.935   1_545  S
Br2134     C2899   1.933   1_545  S
C2137      C2138   1.409       .  A
C2137      C2142   1.411   1_545  A
C2137     Br2916   1.929   1_545  S
C2138      C2139   1.412       .  A
C2139      C2140   1.407       .  A
C2139     Br2146   1.930       .  S
C2140      C2141   1.410       .  A
C2140     Br2145   1.931       .  S
C2141      C2142   1.413   1_545  A
C2142     Br2915   1.929       .  S
Br2143     C2914   1.929       .  S
Br2144     C2909   1.929       .  S
C2147      C2148   1.413       .  A
C2147      C2152   1.410       .  A
C2147     Br2154   1.931       .  S
C2148      C2149   1.410       .  A
C2149      C2150   1.413       .  A
C2149     Br2156   1.928   1_545  S
C2150      C2151   1.413       .  A
C2150     Br2155   1.930   1_545  S
C2151      C2152   1.411       .  A
C2152     Br2153   1.930       .  S
C2157      C2158   1.409       .  A
C2157      C2934   1.408       .  A
C2157     Br2164   1.935       .  S
C2158      C2159   1.408       .  A
C2159      C2932   1.409       .  A
C2159     Br2166   1.930       .  S
C2160      C2931   1.409       .  A
C2160      C2161   1.413   1_565  A
C2160     Br2165   1.931   1_565  S
C2161      C2162   1.421       .  A
C2162      C2929   1.408   1_545  A
C2162     Br2163   1.937       .  S
C2167      C2168   1.415       .  A
C2167      C2172   1.407       .  A
C2167     Br2174   1.933       .  S
C2168      C2169   1.417       .  A
C2169      C2170   1.408       .  A
C2169     Br2176   1.933       .  S
C2170      C2171   1.410       .  A
C2170     Br2175   1.932       .  S
C2171      C2172   1.407       .  A
C2172     Br2173   1.931       .  S
C2177      C2178   1.413       .  A
C2177      C2954   1.412       .  A
C2177     Br2184   1.932       .  S
C2178      C2179   1.412       .  A
C2179      C2952   1.410       .  A
C2179     Br2186   1.928       .  S
C2180      C2951   1.410   1_545  A
C2180      C2181   1.407       .  A
C2180     Br2185   1.928       .  S
C2181      C2182   1.414   1_545  A
C2182      C2949   1.412       .  A
C2182     Br2183   1.931       .  S
C2187      C2188   1.407       .  A
C2187      C2192   1.410       .  A
C2187     Br2194   1.928       .  S
C2188      C2189   1.413       .  A
C2189      C2190   1.403       .  A
C2189     Br2196   1.930       .  S
C2190      C2191   1.407       .  A
C2190     Br2195   1.933       .  S
C2191      C2192   1.413       .  A
C2192     Br2193   1.928       .  S
C2197      C2970   1.416   1_545  A
C2197      C2202   1.406       .  A
C2197     Br2204   1.934       .  S
C2198      C2969   1.416       .  A
C2198      C2199   1.407       .  A
C2199      C2200   1.409       .  A
C2199     Br2206   1.929       .  S
C2200      C2973   1.413       .  A
C2200     Br2205   1.929       .  S
C2201      C2972   1.413   1_545  A
C2201      C2202   1.412       .  A
C2202     Br2203   1.937       .  S
C2207      C2208   1.408       .  A
C2207      C2212   1.404       .  A
C2207     Br2214   1.927       .  S
C2208      C2209   1.406       .  A
C2209      C2210   1.401       .  A
C2209     Br2216   1.934       .  S
C2210      C2211   1.412       .  A
C2210     Br2215   1.931       .  S
C2211      C2212   1.405       .  A
C2212     Br2213   1.927       .  S
C2217      C2218   1.418       .  A
C2217      C2994   1.408       .  A
C2217     Br2224   1.933       .  S
C2218      C2991   1.410       .  A
C2219      C2990   1.410   1_545  A
C2219      C2220   1.408       .  A
C2219     Br2226   1.931   1_545  S
C2220      C2221   1.411       .  A
C2220     Br2225   1.930       .  S
C2221      C2222   1.408       .  A
C2222      C2989   1.408   1_545  A
C2222     Br2223   1.933       .  S
C2227      C2228   1.422       .  A
C2227      C2232   1.408       .  A
C2227     Br2234   1.935       .  S
C2228      C2229   1.415       .  A
C2229      C2230   1.409       .  A
C2229     Br2236   1.932       .  S
C2230      C2231   1.408       .  A
C2230     Br2235   1.930       .  S
C2231      C2232   1.407       .  A
C2232     Br2233   1.935       .  S
C2237      C2238   1.413       .  A
C2237      C2242   1.407       .  A
C2237     Br2244   1.930       .  S
C2238      C2239   1.413       .  A
C2239      C2240   1.408       .  A
C2239     Br2246   1.931       .  S
C2240      C2241   1.408       .  A
C2240     Br2245   1.932       .  S
C2241      C2242   1.405       .  A
C2242     Br2243   1.927       .  S
C2247      C2248   1.408       .  A
C2247      C2252   1.403       .  A
C2247     Br2254   1.931       .  S
C2248      C2249   1.410       .  A
C2249      C2250   1.409       .  A
C2249     Br2256   1.929       .  S
C2250      C2251   1.409       .  A
C2250     Br2255   1.928       .  S
C2251      C2252   1.409       .  A
C2252     Br2253   1.930       .  S
C2257      C2258   1.416       .  A
C2257      C2262   1.413       .  A
C2257     Br2264   1.928       .  S
C2258      C2259   1.412       .  A
C2259      C2260   1.402       .  A
C2259     Br2266   1.921       .  S
C2260      C2261   1.407       .  A
C2260     Br2265   1.934       .  S
C2261      C2262   1.409       .  A
C2262     Br2263   1.928       .  S
C2267      C2268   1.405       .  A
C2267      C2272   1.403       .  A
C2267     Br2274   1.936       .  S
C2268      C2269   1.406       .  A
C2269      C2270   1.410       .  A
C2269     Br2276   1.930       .  S
C2270      C2271   1.420       .  A
C2270     Br2275   1.932       .  S
C2271      C2272   1.419       .  A
C2272     Br2273   1.935       .  S
C2277      C2278   1.401       .  A
C2277      C2282   1.407       .  A
C2277     Br2284   1.936       .  S
C2278      C2279   1.407       .  A
C2279      C2280   1.409       .  A
C2279     Br2286   1.933   1_545  S
C2280      C2281   1.419       .  A
C2280     Br2285   1.934   1_545  S
C2281      C2282   1.428       .  A
C2282     Br2283   1.932       .  S
C2287      C2288   1.403       .  A
C2287      C2292   1.407       .  A
C2287     Br2294   1.939       .  S
C2288      C2289   1.405       .  A
C2289      C2290   1.415       .  A
C2289     Br2296   1.930   1_545  S
C2290      C2291   1.426       .  A
C2290     Br2295   1.933       .  S
C2291      C2292   1.432       .  A
C2292     Br2293   1.941       .  S
C2297      C2298   1.407       .  A
C2297      C2302   1.413       .  A
C2297     Br3076   1.932       .  S
C2298      C2299   1.407       .  A
C2299      C2300   1.406       .  A
C2299     Br2306   1.936       .  S
C2300      C2301   1.423       .  A
C2300     Br2305   1.936       .  S
C2301      C2302   1.424       .  A
C2302     Br3075   1.934       .  S
Br2303     C3074   1.934       .  S
Br2304     C3069   1.932       .  S
C2307      C2308   1.402       .  A
C2307      C2312   1.404       .  A
C2307     Br2314   1.929       .  S
C2308      C2309   1.406       .  A
C2309      C2310   1.413       .  A
C2309     Br2316   1.929       .  S
C2310      C2311   1.424       .  A
C2310     Br2315   1.933       .  S
C2311      C2312   1.422       .  A
C2312     Br2313   1.934       .  S
N2317      H2349   1.040       .  S
N2317      C2321   1.353       .  A
N2318      C2326   1.347       .  A
N2319      H2350   1.043       .  S
N2319      C2324   1.354   1_545  A
N2320      C2328   1.349       .  A
C2321      C2329   1.388       .  A
C2321      C2337   1.416       .  A
C2322      C2338   1.411       .  A
C2322      C2330   1.386   1_565  A
C2323      C2331   1.384       .  A
C2323      C2340   1.412       .  A
C2324      C2339   1.418       .  A
C2324      C2332   1.388       .  A
C2325      C2337   1.412       .  A
C2325      C2333   1.387       .  A
C2326      C2340   1.408       .  A
C2326      C2334   1.385       .  A
C2327      C2335   1.384       .  A
C2327      C2338   1.410       .  A
C2328      C2336   1.388       .  A
C2328      C2339   1.413       .  A
C2329      H2341   1.082       .  S
C2330      H2342   1.083       .  S
C2331      H2343   1.082       .  S
C2332      H2344   1.082       .  S
C2333      H2345   1.082       .  S
C2334      H2346   1.082       .  S
C2335      H2347   1.082       .  S
C2336      H2348   1.082       .  S
C2337      C3050   1.487       .  S
C2338      C3070   1.493       .  S
C2339      C3083   1.531       .  S
C2340      C3060   1.490       .  S
N2351      H2383   1.033       .  S
N2351      C2356   1.353       .  A
N2351      C2355   1.351       .  A
N2352      C2360   1.352       .  A
N2353      H2384   1.034       .  S
N2353      C2358   1.355       .  A
N2353      C2357   1.354       .  A
N2354      C2362   1.349       .  A
C2355      C2363   1.387       .  A
C2355      C2371   1.412       .  A
C2356      C2372   1.416       .  A
C2356      C2364   1.388       .  A
C2357      C2365   1.387       .  A
C2357      C2374   1.417       .  A
C2358      C2373   1.421       .  A
C2358      C2366   1.388       .  A
C2359      C2371   1.413       .  A
C2359      C2367   1.386       .  A
C2360      C2374   1.415       .  A
C2360      C2368   1.387       .  A
C2361      C2369   1.385       .  A
C2361      C2372   1.410       .  A
C2362      C2370   1.387       .  A
C2362      C2373   1.412       .  A
C2363      C2364   1.373       .  A
C2363      H2375   1.082       .  S
C2364      H2376   1.082       .  S
C2365      C2366   1.375       .  A
C2365      H2377   1.081       .  S
C2366      H2378   1.082       .  S
C2367      H2379   1.082       .  S
C2368      H2380   1.082       .  S
C2369      H2381   1.082       .  S
C2370      H2382   1.082       .  S
C2371      C3040   1.485       .  S
C2372      C3020   1.486       .  S
C2373      C3010   1.494       .  S
C2374      C3033   1.491       .  S
N2385      N2386   1.322       .  A
N2385      N2391   1.313       .  A
N2385     Mn2414   2.203       .  S
N2386      C2393   1.356       .  A
N2387      N2389   1.313       .  A
N2387      N2388   1.319       .  A
N2387     Mn2403   2.199       .  S
N2388      C2394   1.354       .  A
N2389      N2390   1.323       .  A
N2389     Mn2414   2.205       .  S
N2390      C2394   1.354       .  A
N2391      N2392   1.316       .  A
N2391     Mn2403   2.188       .  S
N2392      C2393   1.351       .  A
C2393      C3043   1.488       .  S
C2394      C3030   1.490       .  S
N2395      N2401   1.312       .  A
N2395      N2396   1.322       .  A
N2395     Mn2425   2.207       .  S
N2396      C2404   1.356       .  A
N2397      N2398   1.319       .  A
N2397      N2399   1.316       .  A
N2397     Mn2403   2.202       .  S
N2398      C2405   1.351       .  A
N2399      N2400   1.321       .  A
N2399     Mn2425   2.200       .  S
N2400      C2405   1.352       .  A
N2401      N2402   1.317       .  A
N2401     Mn2403   2.189       .  S
N2402      C2404   1.352       .  A
Mn2403    Cl2427   2.550       .  S
C2404      C3073   1.500       .  S
C2405      C3080   1.471       .  S
N2406      N2407   1.315       .  A
N2406      N2412   1.315       .  A
N2406     Mn2414   2.171       .  S
N2407      C2415   1.347       .  A
N2408      N2410   1.316       .  A
N2408      N2409   1.320       .  A
N2408     Mn2426   2.207       .  S
N2409      C2416   1.353       .  A
N2410      N2411   1.321       .  A
N2410     Mn2414   2.204       .  S
N2411      C2416   1.355       .  A
N2412      N2413   1.321       .  A
N2412     Mn2426   2.214       .  S
N2413      C2415   1.356       .  A
Mn2414    Cl2427   2.538       .  S
C2415      C2983   1.465       .  S
C2416      C3000   1.490       .  S
N2417      N2418   1.320       .  A
N2417      N2423   1.317       .  A
N2417     Mn2425   2.209       .  S
N2418      C2428   1.353       .  A
N2419      N2420   1.322       .  A
N2419      N2421   1.317       .  A
N2419     Mn2426   2.216       .  S
N2420      C2429   1.356       .  A
N2421      N2422   1.317       .  A
N2421     Mn2425   2.186       .  S
N2422      C2429   1.349       .  A
N2423      N2424   1.320       .  A
N2423     Mn2426   2.197       .  S
N2424      C2428   1.352       .  A
Mn2425    Cl2427   2.539       .  S
Mn2426    Cl2427   2.543       .  S
C2428      C2990   1.482       .  S
C2429      C2970   1.479       .  S
N2430      N2431   1.324       .  A
N2430      N2436   1.312       .  A
N2430     Mn2459   2.203       .  S
N2431      C2438   1.355       .  A
N2432      N2434   1.314       .  A
N2432      N2433   1.316       .  A
N2432     Mn2448   2.187       .  S
N2433      C2439   1.348       .  A
N2434      N2435   1.325       .  A
N2434     Mn2459   2.210       .  S
N2435      C2439   1.355       .  A
N2436      N2437   1.316       .  A
N2436     Mn2448   2.181       .  S
N2437      C2438   1.349       .  A
C2438      C3023   1.474       .  S
C2439      C3013   1.473       .  S
N2440      N2446   1.312       .  A
N2440      N2441   1.325       .  A
N2440     Mn2470   2.228       .  S
N2441      C2449   1.362       .  A
N2442      N2443   1.313       .  A
N2442      N2444   1.313       .  A
N2442     Mn2448   2.176       .  S
N2443      C2450   1.347       .  A
N2444      N2445   1.326       .  A
N2444     Mn2470   2.231       .  S
N2445      C2450   1.362       .  A
N2446      N2447   1.315       .  A
N2446     Mn2448   2.171       .  S
N2447      C2449   1.347       .  A
Mn2448    Cl2472   2.538       .  S
C2449      C3053   1.498       .  S
C2450      C3063   1.508       .  S
N2451      N2452   1.317       .  A
N2451      N2457   1.315       .  A
N2451     Mn2459   2.185       .  S
N2452      C2460   1.350       .  A
N2453      N2455   1.317       .  A
N2453      N2454   1.322       .  A
N2453     Mn2471   2.218       .  S
N2454      C2461   1.356       .  A
N2455      N2456   1.317       .  A
N2455     Mn2459   2.193       .  S
N2456      C2461   1.351       .  A
N2457      N2458   1.323       .  A
N2457     Mn2471   2.214       .  S
N2458      C2460   1.357       .  A
Mn2459    Cl2472   2.548       .  S
C2460      C2940   1.485       .  S
C2461      C2960   1.475       .  S
N2462      N2463   1.322       .  A
N2462      N2468   1.319       .  A
N2462     Mn2470   2.201       .  S
N2463      C2473   1.352       .  A
N2464      N2465   1.318       .  A
N2464      N2466   1.318       .  A
N2464     Mn2471   2.204       .  S
N2465      C2474   1.351       .  A
N2466      N2467   1.322       .  A
N2466     Mn2470   2.213       .  S
N2467      C2474   1.355       .  A
N2468      N2469   1.323       .  A
N2468     Mn2471   2.228       .  S
N2469      C2473   1.355       .  A
Mn2470    Cl2472   2.557       .  S
Mn2471    Cl2472   2.537       .  S
C2473      C2953   1.484       .  S
C2474      C2933   1.488       .  S
N2475      H2507   1.038   1_544  S
N2475      C2480   1.353       .  A
N2476      C2483   1.351       .  A
N2476      C2484   1.350       .  A
N2477      C2481   1.353       .  A
N2478      C2485   1.351       .  A
N2478      C2486   1.353       .  A
C2479      C2487   1.387       .  A
C2479      C2495   1.420       .  A
C2480      C2496   1.418   1_545  A
C2480      C2488   1.388       .  A
C2481      C2489   1.388       .  A
C2481      C2498   1.418       .  A
C2482      C2497   1.416   1_545  A
C2482      C2490   1.386       .  A
C2483      C2495   1.416       .  A
C2483      C2491   1.386       .  A
C2484      C2498   1.414       .  A
C2484      C2492   1.386       .  A
C2485      C2493   1.387       .  A
C2485      C2496   1.417       .  A
C2486      C2494   1.385       .  A
C2486      C2497   1.415       .  A
C2487      H2499   1.082       .  S
C2488      H2500   1.082       .  S
C2489      H2501   1.082       .  S
C2490      H2502   1.082       .  S
C2491      C2492   1.379       .  A
C2491      H2503   1.082       .  S
C2492      H2504   1.082       .  S
C2493      C2494   1.378       .  A
C2493      H2505   1.082       .  S
C2494      H2506   1.082       .  S
C2495      C2923   1.500       .  S
C2496      C2900   1.491       .  S
C2497      C2890   1.503       .  S
C2498      C2913   1.494       .  S
N2509      H2541   1.032       .  S
N2509      C2514   1.353       .  A
N2509      C2513   1.352   1_554  A
N2510      C2517   1.351       .  A
N2510      C2518   1.350       .  A
N2511      H2542   1.033       .  S
N2511      C2516   1.354       .  A
N2511      C2515   1.352   1_554  A
N2512      C2519   1.348       .  A
N2512      C2520   1.350       .  A
C2513      C2521   1.386       .  A
C2513      C2529   1.413       .  A
C2514      C2530   1.415       .  A
C2514      C2522   1.388       .  A
C2515      C2523   1.387       .  A
C2515      C2532   1.414       .  A
C2516      C2531   1.417       .  A
C2516      C2524   1.388       .  A
C2517      C2529   1.412       .  A
C2517      C2525   1.385       .  A
C2518      C2532   1.413       .  A
C2518      C2526   1.387       .  A
C2519      C2527   1.386       .  A
C2519      C2530   1.411       .  A
C2520      C2528   1.385       .  A
C2520      C2531   1.411       .  A
C2521      C2522   1.375   1_556  A
C2521      H2533   1.083       .  S
C2522      H2534   1.082       .  S
C2523      C2524   1.376   1_556  A
C2523      H2535   1.082       .  S
C2524      H2536   1.083       .  S
C2525      C2526   1.379       .  A
C2525      H2537   1.082       .  S
C2526      H2538   1.082       .  S
C2527      C2528   1.378       .  A
C2527      H2539   1.082       .  S
C2528      H2540   1.082       .  S
C2529      C2873   1.492       .  S
C2530      C2853   1.486       .  S
C2531      C2860   1.493       .  S
C2532      C2883   1.490       .  S
N2543      N2544   1.327       .  A
N2543      N2549   1.311       .  A
N2543     Mn2572   2.228       .  S
N2544      C2551   1.363       .  A
N2545      N2547   1.312       .  A
N2545     Mn2561   2.181   1_455  S
N2546      C2552   1.348       .  A
N2547     Mn2572   2.229   1_455  S
N2548      C2552   1.362       .  A
N2549      N2550   1.312       .  A
N2549     Mn2561   2.171       .  S
N2550      C2551   1.346       .  A
C2551      C2880   1.509       .  S
C2552      C2870   1.512       .  S
N2553      N2559   1.313       .  A
N2553     Mn2583   2.218   1_455  S
N2554      C2562   1.357       .  A
N2555      N2556   1.318       .  A
N2555      N2557   1.315       .  A
N2555     Mn2561   2.189       .  S
N2556      C2563   1.349       .  A
N2557      N2558   1.327       .  A
N2557     Mn2583   2.231       .  S
N2558      C2563   1.360       .  A
N2559     Mn2561   2.180   1_455  S
N2560      C2562   1.349       .  A
Mn2561    Cl2585   2.530       .  S
C2562      C2910   1.480       .  S
C2563      C2920   1.487       .  S
N2564      N2565   1.321       .  A
N2564      N2570   1.318       .  A
N2565      C2573   1.353       .  A
N2566      N2568   1.318       .  A
N2566      N2567   1.318       .  A
N2566     Mn2584   2.198       .  S
N2567      C2574   1.351       .  A
N2568      N2569   1.321       .  A
N2568     Mn2572   2.215       .  S
N2569      C2574   1.356       .  A
N2570      N2571   1.322       .  A
N2571      C2573   1.354       .  A
Mn2572    Cl2585   2.565       .  S
C2573      C2823   1.484       .  S
C2574      C2840   1.486       .  S
N2575      N2576   1.320       .  A
N2575      N2581   1.316       .  A
N2575     Mn2583   2.205       .  S
N2576      C2586   1.355       .  A
N2577      N2578   1.321       .  A
N2577      N2579   1.316       .  A
N2578      C2587   1.355       .  A
N2579      N2580   1.318       .  A
N2580      C2587   1.352       .  A
N2581      N2582   1.321       .  A
N2581     Mn2584   2.210       .  S
N2582      C2586   1.354       .  A
Mn2583    Cl2585   2.558       .  S
Mn2584    Cl2585   2.532       .  S
C2586      C2830   1.493       .  S
C2587      C2810   1.473       .  S
N2588      H2620   1.041       .  S
N2588      C2593   1.350       .  A
N2588      C2592   1.353       .  A
N2589      C2596   1.350       .  A
N2589      C2597   1.348       .  A
N2590      H2621   1.041       .  S
N2590      C2595   1.353       .  A
N2590      C2594   1.352       .  A
N2591      C2598   1.348       .  A
N2591      C2599   1.349       .  A
C2592      C2600   1.387       .  A
C2592      C2608   1.416       .  A
C2593      C2609   1.412       .  A
C2593      C2601   1.386       .  A
C2594      C2602   1.388       .  A
C2594      C2611   1.417       .  A
C2595      C2610   1.414       .  A
C2595      C2603   1.386       .  A
C2596      C2608   1.413       .  A
C2596      C2604   1.386       .  A
C2597      C2611   1.411       .  A
C2597      C2605   1.387       .  A
C2598      C2606   1.386       .  A
C2598      C2609   1.407       .  A
C2599      C2607   1.386       .  A
C2599      C2610   1.409       .  A
C2600      C2601   1.379       .  A
C2600      H2612   1.082       .  S
C2601      H2613   1.082       .  S
C2602      C2603   1.380       .  A
C2602      H2614   1.082       .  S
C2603      H2615   1.082       .  S
C2604      C2605   1.377       .  A
C2604      H2616   1.082       .  S
C2605      H2617   1.082       .  S
C2606      C2607   1.373       .  A
C2608      C2820   1.498       .  S
C2609      C2813   1.482       .  S
C2610      C2930   1.491       .  S
C2611      C2943   1.489       .  S
N2622      H2654   1.041       .  S
N2622      C2627   1.351       .  A
N2622      C2626   1.351       .  A
N2623      C2630   1.351       .  A
N2623      C2631   1.349       .  A
N2624      H2655   1.039       .  S
N2624      C2629   1.355       .  A
N2624      C2628   1.354       .  A
N2625      C2632   1.350       .  A
N2625      C2633   1.351       .  A
C2626      C2634   1.386       .  A
C2626      C2642   1.410       .  A
C2627      C2643   1.410       .  A
C2627      C2635   1.387       .  A
C2628      C2636   1.387       .  A
C2628      C2645   1.420       .  A
C2629      C2644   1.421       .  A
C2629      C2637   1.387       .  A
C2630      C2642   1.410       .  A
C2630      C2638   1.385       .  A
C2631      C2645   1.415       .  A
C2631      C2639   1.388       .  A
C2632      C2640   1.386       .  A
C2632      C2643   1.414       .  A
C2633      C2641   1.387       .  A
C2633      C2644   1.415       .  A
C2634      C2635   1.375       .  A
C2634      H2646   1.082       .  S
C2635      H2647   1.082       .  S
C2636      C2637   1.380       .  A
C2638      C2639   1.376       .  A
C2638      H2650   1.082       .  S
C2639      H2651   1.082       .  S
C2640      C2641   1.376       .  A
C2640      H2652   1.082       .  S
C2641      H2653   1.082       .  S
C2642      C2843   1.490       .  S
C2643      C2963   1.488       .  S
C2644      C2950   1.499       .  S
C2645      C2833   1.496       .  S
N2656      H2688   1.036       .  S
N2656      C2661   1.354       .  A
N2656      C2660   1.357       .  A
N2657      C2664   1.348       .  A
N2657      C2665   1.348       .  A
N2658      H2689   1.038       .  S
N2658      C2663   1.350       .  A
N2658      C2662   1.350       .  A
N2659      C2666   1.351       .  A
N2659      C2667   1.354       .  A
C2660      C2668   1.384       .  A
C2660      C2676   1.418       .  A
C2661      C2677   1.425       .  A
C2661      C2669   1.390       .  A
C2662      C2670   1.386       .  A
C2662      C2679   1.409       .  A
C2663      C2678   1.413       .  A
C2663      C2671   1.388       .  A
C2664      C2676   1.408       .  A
C2664      C2672   1.386       .  A
C2665      C2679   1.409       .  A
C2665      C2673   1.387       .  A
C2666      C2674   1.389       .  A
C2666      C2677   1.420       .  A
C2667      C2675   1.384       .  A
C2667      C2678   1.416       .  A
C2668      C2669   1.374       .  A
C2668      H2680   1.082       .  S
C2669      H2681   1.081       .  S
C2670      C2671   1.376       .  A
C2670      H2682   1.082       .  S
C2671      H2683   1.082       .  S
C2672      C2673   1.370       .  A
C2672      H2684   1.082       .  S
C2673      H2685   1.082       .  S
C2674      C2675   1.371       .  A
C2676      C2803   1.494       .  S
C2677      C2793   1.495       .  S
C2678      C2973   1.494       .  S
C2679      C2980   1.476       .  S
N2690      H2722   1.036       .  S
N2690      C2695   1.356       .  A
N2690      C2694   1.356       .  A
N2691      C2698   1.349       .  A
N2691      C2699   1.351       .  A
N2692      H2723   1.037       .  S
N2692      C2697   1.351       .  A
N2692      C2696   1.353       .  A
N2693      C2700   1.353       .  A
N2693      C2701   1.354       .  A
C2694      C2702   1.386       .  A
C2694      C2710   1.418       .  A
C2695      C2711   1.424       .  A
C2695      C2703   1.389       .  A
C2696      C2704   1.385       .  A
C2696      C2713   1.411       .  A
C2697      C2712   1.415       .  A
C2697      C2705   1.389       .  A
C2698      C2710   1.411       .  A
C2698      C2706   1.387       .  A
C2699      C2713   1.411       .  A
C2699      C2707   1.385       .  A
C2700      C2708   1.387       .  A
C2700      C2711   1.420       .  A
C2701      C2709   1.386       .  A
C2701      C2712   1.419       .  A
C2702      C2703   1.372       .  A
C2704      C2705   1.373       .  A
C2704      H2716   1.082       .  S
C2705      H2717   1.082       .  S
C2706      C2707   1.373       .  A
C2706      H2718   1.082       .  S
C2707      H2719   1.082       .  S
C2708      C2709   1.377       .  A
C2708      H2720   1.082       .  S
C2709      H2721   1.082       .  S
C2710      C2993   1.491       .  S
C2711      C2773   1.500       .  S
C2712      C2783   1.492       .  S
C2713      C3003   1.491       .  S
N2724      N2725   1.325       .  A
N2724      N2730   1.314       .  A
N2724     Mn2753   2.214       .  S
N2725      C2732   1.355       .  A
N2726      N2728   1.314       .  A
N2726     Mn2742   2.196   1_455  S
N2727      C2733   1.351       .  A
N2728     Mn2753   2.210   1_455  S
N2729      C2733   1.356       .  A
N2730      N2731   1.318       .  A
N2730     Mn2742   2.192       .  S
N2731      C2732   1.352       .  A
C2732      C2863   1.481       .  S
C2733      C2850   1.482       .  S
N2734      N2740   1.312       .  A
N2734     Mn2764   2.232   1_455  S
N2735      C2743   1.363       .  A
N2736      N2737   1.318       .  A
N2736      N2738   1.312       .  A
N2736     Mn2742   2.202       .  S
N2737      C2744   1.353       .  A
N2738      N2739   1.323       .  A
N2738     Mn2764   2.213       .  S
N2739      C2744   1.358       .  A
N2740     Mn2742   2.180   1_455  S
N2741      C2743   1.348       .  A
Mn2742    Cl2766   2.543       .  S
C2743      C2893   1.511       .  S
C2744      C2903   1.512       .  S
N2745      N2746   1.321       .  A
N2745      N2751   1.317       .  A
N2746      C2754   1.355       .  A
N2747      N2749   1.316       .  A
N2747      N2748   1.326       .  A
N2747     Mn2765   2.241       .  S
N2748      C2755   1.361       .  A
N2749      N2750   1.315       .  A
N2749     Mn2753   2.178       .  S
N2750      C2755   1.347       .  A
N2751      N2752   1.321       .  A
N2752      C2754   1.354       .  A
Mn2753    Cl2766   2.548       .  S
C2754      C2800   1.488       .  S
C2755      C2780   1.478       .  S
N2756      N2757   1.322       .  A
N2756      N2762   1.318       .  A
N2756     Mn2764   2.221       .  S
N2757      C2767   1.355       .  A
N2758      N2759   1.322       .  A
N2758      N2760   1.317       .  A
N2759      C2768   1.357       .  A
N2760      N2761   1.319       .  A
N2761      C2768   1.352       .  A
N2762      N2763   1.322       .  A
N2762     Mn2765   2.213       .  S
N2763      C2767   1.354       .  A
Mn2764    Cl2766   2.554       .  S
Mn2765    Cl2766   2.552       .  S
C2767      C2770   1.487       .  S
C2768      C2790   1.478       .  S
C2769      C2774   1.414       .  A
C2770      C2771   1.413       .  A
C2771     Br2778   1.929       .  S
C2772      C2773   1.412       .  A
C2772     Br2777   1.934       .  S
C2773      C2774   1.412       .  A
C2774     Br2775   1.927       .  S
C2779      C2780   1.413       .  A
C2779      C2784   1.406       .  A
C2779     Br2786   1.930       .  S
C2780      C2781   1.408       .  A
C2781      C2782   1.411       .  A
C2781     Br2788   1.928       .  S
C2782      C2783   1.412       .  A
C2782     Br2787   1.929       .  S
C2783      C2784   1.408       .  A
C2784     Br2785   1.931       .  S
C2789      C2790   1.408       .  A
C2789     Br2796   1.926       .  S
C2790      C2791   1.409   1_565  A
C2792      C2793   1.411       .  A
C2792     Br2797   1.933       .  S
C2793      C2794   1.415       .  A
C2794     Br2795   1.930       .  S
C2799      C2800   1.412       .  A
C2799      C2804   1.410       .  A
C2799     Br2806   1.928       .  S
C2800      C2801   1.418       .  A
C2801      C2802   1.409       .  A
C2801     Br2808   1.933       .  S
C2802      C2803   1.410       .  A
C2802     Br2807   1.934       .  S
C2803      C2804   1.408       .  A
C2804     Br2805   1.929       .  S
C2809      C2814   1.408   1_545  A
C2809     Br2816   1.927       .  S
C2810      C2811   1.412       .  A
C2811      C2812   1.403       .  A
C2811     Br2818   1.929       .  S
C2812     Br2817   1.933       .  S
C2813      C2814   1.410       .  A
C2814     Br2815   1.929       .  S
C2819      C2820   1.414       .  A
C2819      C2824   1.409       .  A
C2819     Br2826   1.929       .  S
C2820      C2821   1.412       .  A
C2821      C2822   1.410       .  A
C2821     Br2828   1.934       .  S
C2822      C2823   1.416       .  A
C2823      C2824   1.408       .  A
C2824     Br2825   1.930       .  S
C2829      C2830   1.415       .  A
C2829     Br2836   1.934       .  S
C2830      C2831   1.420       .  A
C2831     Br2838   1.933       .  S
C2832      C2833   1.409   1_545  A
C2832     Br2837   1.935   1_545  S
C2833      C2834   1.411       .  A
C2834     Br2835   1.931       .  S
C2839      C2840   1.412       .  A
C2839      C2844   1.408       .  A
C2839     Br2846   1.929       .  S
C2840      C2841   1.420       .  A
C2841      C2842   1.407       .  A
C2841     Br2848   1.936       .  S
C2842      C2843   1.409       .  A
C2842     Br2847   1.936       .  S
C2843      C2844   1.409       .  A
C2844     Br2845   1.930       .  S
C2849      C2850   1.413       .  A
C2849      C2854   1.405       .  A
C2849     Br2856   1.928       .  S
C2850      C2851   1.412       .  A
C2851      C2852   1.410       .  A
C2851     Br2858   1.929       .  S
C2852      C2853   1.409       .  A
C2852     Br2857   1.930       .  S
C2853      C2854   1.406       .  A
C2854     Br2855   1.932       .  S
C2859      C2860   1.412       .  A
C2859      C2864   1.410       .  A
C2859     Br2866   1.930       .  S
C2860      C2861   1.410       .  A
C2861      C2862   1.407       .  A
C2861     Br2868   1.928       .  S
C2862      C2863   1.409       .  A
C2862     Br2867   1.931       .  S
C2863      C2864   1.409       .  A
C2864     Br2865   1.927       .  S
C2869      C2870   1.428       .  A
C2869      C2874   1.415       .  A
C2869     Br2876   1.933       .  S
C2870      C2871   1.433       .  A
C2871      C2872   1.408       .  A
C2871     Br2878   1.941       .  S
C2872      C2873   1.403       .  A
C2872     Br2877   1.940       .  S
C2873      C2874   1.404       .  A
C2874     Br2875   1.931       .  S
C2879      C2880   1.434       .  A
C2879      C2884   1.407       .  A
C2879     Br2886   1.942       .  S
C2880      C2881   1.426       .  A
C2881      C2882   1.413       .  A
C2881     Br2888   1.930       .  S
C2882      C2883   1.404       .  A
C2882     Br2887   1.932       .  S
C2883      C2884   1.403       .  A
C2884     Br2885   1.940       .  S
C2889      C2890   1.410       .  A
C2889      C2894   1.418       .  A
C2889     Br2896   1.932   1_565  S
C2890      C2891   1.408       .  A
C2891      C2892   1.408       .  A
C2891     Br2898   1.939       .  S
C2892      C2893   1.429       .  A
C2892     Br2897   1.940       .  S
C2893      C2894   1.425       .  A
C2894     Br2895   1.933       .  S
C2899      C2900   1.404       .  A
C2899      C2904   1.414       .  A
C2900      C2901   1.402       .  A
C2901      C2902   1.408       .  A
C2901     Br2908   1.938       .  S
C2902      C2903   1.431       .  A
C2902     Br2907   1.937       .  S
C2903      C2904   1.430       .  A
C2909      C2910   1.409       .  A
C2909      C2914   1.410       .  A
C2910      C2911   1.412       .  A
C2911      C2912   1.407       .  A
C2911     Br2918   1.930       .  S
C2912      C2913   1.410       .  A
C2912     Br2917   1.931       .  S
C2913      C2914   1.413       .  A
C2919      C2920   1.413       .  A
C2919      C2924   1.410       .  A
C2919     Br2926   1.931       .  S
C2920      C2921   1.410       .  A
C2921      C2922   1.413       .  A
C2921     Br2928   1.928       .  S
C2922      C2923   1.413       .  A
C2922     Br2927   1.930       .  S
C2923      C2924   1.411       .  A
C2924     Br2925   1.930       .  S
C2929      C2930   1.409       .  A
C2929     Br2936   1.935       .  S
C2930      C2931   1.408       .  A
C2931     Br2938   1.930       .  S
C2932      C2933   1.413       .  A
C2932     Br2937   1.931       .  S
C2933      C2934   1.421       .  A
C2934     Br2935   1.937       .  S
C2939      C2940   1.415       .  A
C2939      C2944   1.407       .  A
C2939     Br2946   1.933       .  S
C2940      C2941   1.417       .  A
C2941      C2942   1.408       .  A
C2941     Br2948   1.933       .  S
C2942      C2943   1.410       .  A
C2942     Br2947   1.932       .  S
C2943      C2944   1.407       .  A
C2944     Br2945   1.931       .  S
C2949      C2950   1.413       .  A
C2949     Br2956   1.932       .  S
C2950      C2951   1.412       .  A
C2951     Br2958   1.928       .  S
C2952      C2953   1.407       .  A
C2952     Br2957   1.928       .  S
C2953      C2954   1.414       .  A
C2954     Br2955   1.931       .  S
C2959      C2960   1.407       .  A
C2959      C2964   1.410       .  A
C2959     Br2966   1.928       .  S
C2960      C2961   1.413       .  A
C2961      C2962   1.403       .  A
C2961     Br2968   1.930       .  S
C2962      C2963   1.407       .  A
C2962     Br2967   1.933       .  S
C2963      C2964   1.413       .  A
C2964     Br2965   1.928       .  S
C2969      C2974   1.406       .  A
C2969     Br2976   1.934       .  S
C2970      C2971   1.407       .  A
C2971      C2972   1.409       .  A
C2971     Br2978   1.929       .  S
C2972     Br2977   1.929       .  S
C2973      C2974   1.412       .  A
C2974     Br2975   1.937       .  S
C2979      C2980   1.408       .  A
C2979      C2984   1.405       .  A
C2979     Br2986   1.927       .  S
C2980      C2981   1.406       .  A
C2981      C2982   1.401       .  A
C2981     Br2988   1.934       .  S
C2982      C2983   1.412       .  A
C2982     Br2987   1.931       .  S
C2983      C2984   1.405       .  A
C2984     Br2985   1.927       .  S
C2989      C2990   1.418       .  A
C2989     Br2996   1.933       .  S
C2991      C2992   1.408       .  A
C2991     Br2998   1.931       .  S
C2992      C2993   1.411       .  A
C2992     Br2997   1.930       .  S
C2993      C2994   1.407       .  A
C2994     Br2995   1.933       .  S
C2999      C3000   1.422       .  A
C2999      C3004   1.408       .  A
C2999     Br3006   1.935       .  S
C3000      C3001   1.415       .  A
C3001      C3002   1.409       .  A
C3001     Br3008   1.932       .  S
C3002      C3003   1.408       .  A
C3002     Br3007   1.930       .  S
C3003      C3004   1.407       .  A
C3004     Br3005   1.935       .  S
C3009      C3010   1.413       .  A
C3009      C3014   1.407       .  A
C3009     Br3016   1.930       .  S
C3010      C3011   1.413       .  A
C3011      C3012   1.408       .  A
C3011     Br3018   1.931       .  S
C3012      C3013   1.408       .  A
C3012     Br3017   1.932       .  S
C3013      C3014   1.405       .  A
C3014     Br3015   1.927       .  S
C3019      C3020   1.408       .  A
C3019      C3024   1.403       .  A
C3019     Br3026   1.931       .  S
C3020      C3021   1.410       .  A
C3021      C3022   1.409       .  A
C3021     Br3028   1.929       .  S
C3022      C3023   1.409       .  A
C3022     Br3027   1.928       .  S
C3023      C3024   1.409       .  A
C3024     Br3025   1.930       .  S
C3029      C3030   1.416       .  A
C3029      C3034   1.413       .  A
C3029     Br3036   1.928       .  S
C3030      C3031   1.412       .  A
C3031      C3032   1.402       .  A
C3031     Br3038   1.921       .  S
C3032      C3033   1.407       .  A
C3032     Br3037   1.934       .  S
C3033      C3034   1.409       .  A
C3034     Br3035   1.928       .  S
C3039      C3040   1.405       .  A
C3039      C3044   1.403       .  A
C3039     Br3046   1.936       .  S
C3040      C3041   1.406       .  A
C3041      C3042   1.410       .  A
C3041     Br3048   1.931       .  S
C3042      C3043   1.420       .  A
C3042     Br3047   1.932       .  S
C3043      C3044   1.419       .  A
C3044     Br3045   1.935       .  S
C3049      C3050   1.401       .  A
C3049      C3054   1.407       .  A
C3049     Br3056   1.937       .  S
C3050      C3051   1.407       .  A
C3051      C3052   1.409       .  A
C3051     Br3058   1.933       .  S
C3052      C3053   1.419       .  A
C3052     Br3057   1.934       .  S
C3053      C3054   1.428       .  A
C3054     Br3055   1.932       .  S
C3059      C3060   1.403       .  A
C3059      C3064   1.407       .  A
C3059     Br3066   1.939       .  S
C3060      C3061   1.405       .  A
C3061      C3062   1.415       .  A
C3061     Br3068   1.930       .  S
C3062      C3063   1.426       .  A
C3062     Br3067   1.933       .  S
C3063      C3064   1.432       .  A
C3064     Br3065   1.941       .  S
C3069      C3070   1.407       .  A
C3069      C3074   1.413       .  A
C3070      C3071   1.407       .  A
C3071      C3072   1.406       .  A
C3071     Br3078   1.936       .  S
C3072      C3073   1.423       .  A
C3072     Br3077   1.936       .  S
C3073      C3074   1.424       .  A
C3079      C3080   1.401       .  A
C3079      C3084   1.404       .  A
C3079     Br3086   1.929       .  S
C3080      C3081   1.406       .  A
C3081      C3082   1.413       .  A
C3081     Br3088   1.929       .  S
C3082      C3083   1.424       .  A
C3082     Br3087   1.933       .  S
C3083      C3084   1.422       .  A
C3084     Br3085   1.934   1_565  S
