geometry optimzed in LAMMPS
_audit_creation_date              2020-12-01 
_audit_creation_method            'lammps2cif' 
_symmetry_space_group_name_H-M    'P1' 
_symmetry_Int_Tables_number       1 
_symmetry_cell_setting            triclinic 
loop_ 
_symmetry_equiv_pos_as_xyz 
  x,y,z 
_cell_length_a                    35.39895743 
_cell_length_b                    35.39551209944868 
_cell_length_c                    35.58893069774282 
_cell_angle_alpha                 90.11417786081725 
_cell_angle_beta                  89.85705121589847 
_cell_angle_gamma                 89.96820639171234 
loop_ 
_atom_site_label 
_atom_site_type_symbol 
_atom_site_fract_x 
_atom_site_fract_y 
_atom_site_fract_z 
_atom_site_charge 
C1          C  0.54465551  0.52992766  0.24106786     0.02500
C2          C  0.52521394  0.55885715  0.25994284    -0.13600
C3          C  0.53222628  0.56617748  0.29804222     0.00000
C4          C  0.55956741  0.54477267  0.31695903    -0.12200
C5          C  0.57932625  0.51578212  0.29844736     0.02500
C6          C  0.57156872  0.50840104  0.26050049    -0.11600
H7          H  0.50396961  0.57509266  0.24518122     0.08100
H8          H  0.56418578  0.54947936  0.34668816     0.05600
H9          H  0.58682335  0.48622009  0.24590597     0.05500
C10         C  0.42752748  0.40540410  0.73661984     0.02500
C11         C  0.44779373  0.37832632  0.71547599    -0.13600
C12         C  0.44073177  0.37353249  0.67698325     0.00000
C13         C  0.41184477  0.39446117  0.66014869    -0.12200
C14         C  0.39200454  0.42229701  0.68013069     0.02500
C15         C  0.39956011  0.42728669  0.71854230    -0.11600
H16         H  0.47000485  0.36194602  0.72851593     0.08100
H17         H  0.40591733  0.39016451  0.63057943     0.05600
H18         H  0.38533454  0.44975609  0.73367531     0.05500
C19         C  0.74396932  0.53113758  0.92703949     0.02500
C20         C  0.76412083  0.51111634  0.89907036    -0.13600
C21         C  0.80278021  0.51771834  0.89328255     0.00000
C22         C  0.82091604  0.54579145  0.91418210    -0.12200
C23         C  0.80190408  0.56564074  0.94250734     0.02500
C24         C  0.76329996  0.55855502  0.94860689    -0.11600
H25         H  0.75018884  0.48954640  0.88256834     0.08100
H26         H  0.85061016  0.55135889  0.90914972     0.05600
H27         H  0.74899475  0.57291376  0.97145715     0.05500
C28         C  0.42322622  0.72287881  0.92758487     0.02500
C29         C  0.39503642  0.74259491  0.94731460    -0.13600
C30         C  0.38734956  0.78061036  0.93910461     0.00000
C31         C  0.40749497  0.79851606  0.91012751    -0.12200
C32         C  0.43601227  0.77929184  0.89032136     0.02500
C33         C  0.44379757  0.74147449  0.89932171    -0.11600
H34         H  0.37973048  0.72859613  0.96972056     0.08100
H35         H  0.40245769  0.82815017  0.90440789     0.05600
H36         H  0.46575437  0.72641433  0.88418721     0.05500
C37         C  0.23304730  0.41410482  0.05429369     0.02500
C38         C  0.21341996  0.43478665  0.08200088    -0.13600
C39         C  0.17443707  0.42925578  0.08749809     0.00000
C40         C  0.15584080  0.40148480  0.06624590    -0.12200
C41         C  0.17468143  0.38126771  0.03793432     0.02500
C42         C  0.21345215  0.38733552  0.03249603    -0.11600
H43         H  0.22794491  0.45682014  0.09741211     0.08100
H44         H  0.12604133  0.39635218  0.07099060     0.05600
H45         H  0.22814358  0.37230672  0.01028902     0.05500
C46         C  0.55176358  0.21432749  0.04151840     0.02500
C47         C  0.57668436  0.19439763  0.01756096    -0.13600
C48         C  0.58338284  0.15568672  0.02270030     0.00000
C49         C  0.56531028  0.13682692  0.05216340    -0.12200
C50         C  0.53896353  0.15525587  0.07511785     0.02500
C51         C  0.53332568  0.19428394  0.07063930    -0.11600
H52         H  0.58936619  0.20828409  0.99359118     0.08100
H53         H  0.57070829  0.10698751  0.05635019     0.05600
H54         H  0.51350464  0.20849782  0.08901478     0.05500
Zn55       Zn  0.51568532  0.51555087  0.00395480     1.49700
Zn56       Zn  0.47208938  0.44124897  0.03251603     1.49400
Zn57       Zn  0.44262341  0.48500946  0.96096767     1.49100
Zn58       Zn  0.52159476  0.43885727  0.95664080     1.49500
O59         O  0.48815422  0.47010276  0.98835488    -1.84700
O60         O  0.51922590  0.51848154  0.06052703    -0.75400
O61         O  0.41517700  0.43822635  0.03802739    -0.75200
O62         O  0.43871670  0.54190781  0.95600592    -0.74700
O63         O  0.49233312  0.46499548  0.07937576    -0.75400
O64         O  0.49017125  0.56255110  0.98514913    -0.75000
O65         O  0.39510356  0.46655736  0.98627431    -0.75600
O66         O  0.49807333  0.43173689  0.90483692    -0.75000
O67         O  0.49195271  0.38809094  0.03025274    -0.75700
O68         O  0.44331018  0.46234789  0.90925078    -0.75100
O69         O  0.52945943  0.38699129  0.98003834    -0.75600
O70         O  0.57342852  0.46301669  0.95043303    -0.75500
O71         O  0.56883539  0.51634123  0.98307018    -0.75300
C72         C  0.50957749  0.49570825  0.08652473     0.76500
C73         C  0.38841692  0.44892367  0.01671111     0.77000
C74         C  0.46005258  0.56882738  0.96671104     0.76000
C75         C  0.46669222  0.44229261  0.89064536     0.76300
C76         C  0.51500456  0.37086505  0.00869453     0.77500
C77         C  0.58783933  0.49374443  0.96250990     0.76500
C78         C  0.54686050  0.22666427  0.54206680     0.02500
C79         C  0.57668343  0.24451810  0.52294337    -0.13600
C80         C  0.58606083  0.28223546  0.53049069     0.00000
C81         C  0.56611028  0.30188115  0.55849806    -0.12200
C82         C  0.53611929  0.28469576  0.57797969     0.02500
C83         C  0.52677989  0.24702473  0.56967846    -0.11600
H84         H  0.59273578  0.22912458  0.50197370     0.08100
H85         H  0.57303081  0.33114796  0.56416770     0.05600
H86         H  0.50269149  0.23421203  0.58346266     0.05500
C87         C  0.42469523  0.71754820  0.42809541     0.02500
C88         C  0.44636936  0.69884262  0.40069439    -0.13600
C89         C  0.43978826  0.66074273  0.39243519     0.00000
C90         C  0.41166293  0.64116580  0.41212833    -0.12200
C91         C  0.39069356  0.65893735  0.44067786     0.02500
C92         C  0.39674889  0.69751855  0.44790156    -0.11600
H93         H  0.46817632  0.71402459  0.38553609     0.08100
H94         H  0.40711574  0.61149344  0.40612422     0.05600
H95         H  0.38128982  0.71146865  0.47028614     0.05500
C96         C  0.53740733  0.90573888  0.73250802     0.02500
C97         C  0.51769862  0.87817669  0.75296425    -0.13600
C98         C  0.52700371  0.87077584  0.79063571     0.00000
C99         C  0.55691619  0.89083146  0.80735248    -0.12200
C100        C  0.57686151  0.91849273  0.78713367     0.02500
C101        C  0.56705739  0.92546742  0.74965168    -0.11600
H102        H  0.49449788  0.86322844  0.73983110     0.08100
H103        H  0.56322938  0.88647263  0.83679541     0.05600
H104        H  0.58240283  0.94656699  0.73372916     0.05500
C105        C  0.73354763  0.91719994  0.41081591     0.02500
C106        C  0.75272535  0.88712069  0.42848365    -0.13600
C107        C  0.79159355  0.88173224  0.42295191     0.00000
C108        C  0.81071119  0.90476077  0.39723177    -0.12200
C109        C  0.79247803  0.93491023  0.37952888     0.02500
C110        C  0.75379931  0.94081348  0.38600159    -0.11600
H111        H  0.73798983  0.86913664  0.44821578     0.08100
H112        H  0.84063263  0.90038165  0.39232113     0.05600
H113        H  0.74029789  0.96525455  0.37364631     0.05500
C114        C  0.42710775  0.03078362  0.22771740     0.02500
C115        C  0.44941657  0.05618348  0.20679719    -0.13600
C116        C  0.44174207  0.06296799  0.16869567     0.00000
C117        C  0.41128620  0.04422778  0.15163281    -0.12200
C118        C  0.38945338  0.01819980  0.17174001     0.02500
C119        C  0.39697918  0.01218419  0.20982039    -0.11600
H120        H  0.47384532  0.06933044  0.21954865     0.08100
H121        H  0.40538399  0.04878795  0.12213124     0.05600
H122        H  0.37919919  0.99278683  0.22532484     0.05500
C123        C  0.22640249  0.03423333  0.53680895     0.02500
C124        C  0.20752009  0.06126944  0.51508958    -0.13600
C125        C  0.16955140  0.07006629  0.52228126     0.00000
C126        C  0.15037904  0.05109717  0.55125925    -0.12200
C127        C  0.16872458  0.02343930  0.57285654     0.02500
C128        C  0.20696824  0.01553257  0.56570995    -0.11600
H129        H  0.22261950  0.07587370  0.49293031     0.08100
H130        H  0.12061921  0.05667141  0.55584473     0.05600
H131        H  0.22149239  0.99431428  0.58216515     0.05500
Zn132      Zn  0.46439010  0.00157701  0.52618810     1.49700
Zn133      Zn  0.51197837  0.00668384  0.44970993     1.49400
Zn134      Zn  0.51060063  0.93001180  0.49729656     1.49100
Zn135      Zn  0.43717189  0.95620778  0.45355000     1.49500
O136        O  0.48111486  0.97375720  0.48168968    -1.84700
O137        O  0.48598568  0.05399269  0.52665486    -0.77400
O138        O  0.56368468  0.98367954  0.44053784    -0.75200
O139        O  0.51257168  0.92545051  0.55361558    -0.74700
O140        O  0.51827298  0.05834136  0.47322452    -0.75400
O141        O  0.48133908  0.97609712  0.57370925    -0.75000
O142        O  0.56362051  0.93299371  0.47739344    -0.75600
O143        O  0.43366166  0.89941259  0.45224310    -0.75000
O144        O  0.48803417  0.01383876  0.39911390    -0.75700
O145        O  0.48808634  0.88188537  0.47768328    -0.75100
O146        O  0.43972620  0.97375618  0.40013889    -0.75600
O147        O  0.38916559  0.97697918  0.47551376    -0.75500
O148        O  0.40763717  0.00655560  0.52742262    -0.75300
C149        C  0.50640893  0.07277396  0.50390489     0.76500
C150        C  0.58018305  0.95482312  0.45423505     0.77000
C151        C  0.50001281  0.94607106  0.58019281     0.76000
C152        C  0.45707649  0.87380855  0.46155652     0.76300
C153        C  0.46041898  0.99755397  0.38301092     0.77500
C154        C  0.38169267  0.99601489  0.50499305     0.76500
C155        C  0.05331533  0.22763709  0.92681276     0.02500
C156        C  0.03268322  0.24463526  0.89791346    -0.13600
C157        C  0.03874010  0.28250622  0.88856183     0.00000
C158        C  0.06562661  0.30346456  0.90863866    -0.12200
C159        C  0.08594078  0.28705514  0.93833411     0.02500
C160        C  0.08027195  0.24867983  0.94670201    -0.11600
H161        H  0.01158016  0.22835305  0.88293153     0.08100
H162        H  0.06956534  0.33311247  0.90220093     0.05600
H163        H  0.09497199  0.23581646  0.97009346     0.05500
C164        C  0.23586598  0.91286511  0.04437375     0.02500
C165        C  0.25525116  0.88518529  0.02355921    -0.13600
C166        C  0.29328987  0.87702677  0.03116978     0.00000
C167        C  0.31183200  0.89697246  0.05983840    -0.12200
C168        C  0.29301634  0.92525450  0.08029999     0.02500
C169        C  0.25490169  0.93273603  0.07271832    -0.11600
H170        H  0.24066875  0.86991831  0.00152260     0.08100
H171        H  0.34162058  0.89200013  0.06477443     0.05600
H172        H  0.24033007  0.95478954  0.08818412     0.05500
C173        C  0.92354738  0.04424719  0.23389271     0.02500
C174        C  0.94424977  0.07325855  0.25117595    -0.13600
C175        C  0.93829276  0.08219888  0.28916276     0.00000
C176        C  0.91074170  0.06232571  0.30957549    -0.12200
C177        C  0.89000715  0.03291950  0.29284443     0.02500
C178        C  0.89669076  0.02406513  0.25489179    -0.11600
H179        H  0.96561015  0.08828116  0.23526433     0.08100
H180        H  0.90623371  0.06909983  0.33893776     0.05600
H181        H  0.88155438  0.00097214  0.24175472     0.05500
C182        C  0.92492718  0.72362583  0.04745222     0.02500
C183        C  0.89930691  0.70117532  0.02690978    -0.13600
C184        C  0.89334744  0.66309620  0.03632392     0.00000
C185        C  0.91327182  0.64743232  0.06658788    -0.12200
C186        C  0.93942692  0.66896931  0.08681165     0.02500
C187        C  0.94439048  0.70712366  0.07778936    -0.11600
H188        H  0.88539445  0.71255265  0.00236350     0.08100
H189        H  0.90953501  0.61787589  0.07353233     0.05600
H190        H  0.96381095  0.72366073  0.09451625     0.05500
C191        C  0.73203547  0.03042676  0.90876492     0.02500
C192        C  0.71137930  0.05781375  0.92890088    -0.13600
C193        C  0.67284817  0.06357535  0.92171168     0.00000
C194        C  0.65529567  0.04243428  0.89332689    -0.12200
C195        C  0.67519674  0.01462268  0.87342457     0.02500
C196        C  0.71358439  0.00887666  0.88104143    -0.11600
H197        H  0.72467605  0.07303122  0.95174305     0.08100
H198        H  0.62547117  0.04644187  0.88779963     0.05600
H199        H  0.72891987  0.98748652  0.86541651     0.05500
C200        C  0.03643577  0.91980529  0.72606486     0.02500
C201        C  0.01662549  0.89188242  0.70577826    -0.13600
C202        C  0.02406330  0.88567580  0.66747171     0.00000
C203        C  0.05308865  0.90613500  0.64998332    -0.12200
C204        C  0.07282062  0.93429808  0.66934866     0.02500
C205        C  0.06403590  0.94143744  0.70716349    -0.11600
H206        H  0.99481729  0.87546789  0.71945347     0.08100
H207        H  0.05943005  0.90116671  0.62057539     0.05600
H208        H  0.07862658  0.96404754  0.72161655     0.05500
Zn209      Zn  0.02859960  0.99080811  0.95406044     1.49700
Zn210      Zn  0.95516095  0.02165632  0.99690331     1.49400
Zn211      Zn  0.95165729  0.94367986  0.95103323     1.49100
Zn212      Zn  0.99903652  0.94967710  0.02761192     1.49500
O213        O  0.98347157  0.97642325  0.98232568    -1.84700
O214        O  0.03395182  0.04738795  0.95134773    -0.75400
O215        O  0.90364959  0.02230467  0.97297095    -0.75200
O216        O  0.97409454  0.93697139  0.89883987    -0.74700
O217        O  0.98214519  0.06828326  0.97996228    -0.75400
O218        O  0.02680928  0.97085729  0.90130975    -0.75000
O219        O  0.90044764  0.96680961  0.94388776    -0.75600
O220        O  0.97954387  0.89671382  0.02663887    -0.75000
O221        O  0.94838811  0.02516473  0.05331494    -0.75700
O222        O  0.94434944  0.89239376  0.97511568    -0.75100
O223        O  0.97845658  0.97440864  0.07439671    -0.75600
O224        O  0.05569892  0.94581687  0.03165049    -0.75500
O225        O  0.07559165  0.96999623  0.97762128    -0.75300
C226        C  0.01295139  0.07440855  0.96250879     0.76500
C227        C  0.88568623  0.99825082  0.95326696     0.77000
C228        C  0.00388039  0.94992706  0.88330749     0.76000
C229        C  0.95801107  0.87799972  0.00493071     0.76300
C230        C  0.95903969  0.00413755  0.08031493     0.77500
C231        C  0.08221551  0.95367896  0.00873553     0.76500
C232        C  0.23971598  0.53795863  0.55896925     0.02500
C233        C  0.25936032  0.56390162  0.53627804    -0.13600
C234        C  0.29807250  0.56996045  0.54140430     0.00000
C235        C  0.31675004  0.55081932  0.57029812    -0.12200
C236        C  0.29829543  0.52334338  0.59203148     0.02500
C237        C  0.25927050  0.51777790  0.58694063    -0.11600
H238        H  0.24479571  0.57814195  0.51360385     0.08100
H239        H  0.34653396  0.55622552  0.57474452     0.05600
H240        H  0.24469281  0.49606630  0.60273723     0.05500
C241        C  0.73662942  0.41400972  0.42456466     0.02500
C242        C  0.71566921  0.43420100  0.39770741    -0.13600
C243        C  0.67808120  0.42452781  0.38977872     0.00000
C244        C  0.66116995  0.39452617  0.40915848    -0.12200
C245        C  0.68117808  0.37460299  0.43668915     0.02500
C246        C  0.71904214  0.38388619  0.44364350    -0.11600
H247        H  0.72809664  0.45821255  0.38354423     0.08100
H248        H  0.63156709  0.38828587  0.40453659     0.05600
H249        H  0.73450967  0.36763511  0.46424372     0.05500
C250        C  0.91250839  0.73304765  0.54301995     0.02500
C251        C  0.88507765  0.75216640  0.52156513    -0.13600
C252        C  0.87858559  0.79091610  0.52681164     0.00000
C253        C  0.89803038  0.80993105  0.55543375    -0.12200
C254        C  0.92629795  0.79192342  0.57623177     0.02500
C255        C  0.93305617  0.75333044  0.57031341    -0.11600
H256        H  0.86989261  0.73733512  0.49970189     0.08100
H257        H  0.89241612  0.83962379  0.56040056     0.05600
H258        H  0.95594979  0.73978624  0.58527143     0.05500
C259        C  0.04824576  0.23052978  0.41995492     0.02500
C260        C  0.07586821  0.20973249  0.43907196    -0.13600
C261        C  0.08236162  0.17167380  0.43005698     0.00000
C262        C  0.06186243  0.15495253  0.40070003    -0.12200
C263        C  0.03396650  0.17535329  0.38142191     0.02500
C264        C  0.02721129  0.21317371  0.39133368    -0.11600
H265        H  0.09137607  0.22282915  0.46185570     0.08100
H266        H  0.06583291  0.12521565  0.39454003     0.05600
H267        H  0.00549979  0.22909796  0.37690232     0.05500
C268        C  0.92981162  0.41146418  0.73983217     0.02500
C269        C  0.94965891  0.38162199  0.75655178    -0.13600
C270        C  0.94330954  0.37230513  0.79424879     0.00000
C271        C  0.91628871  0.39253910  0.81495455    -0.12200
C272        C  0.89675665  0.42302909  0.79892349     0.02500
C273        C  0.90349491  0.43215779  0.76115076    -0.11600
H274        H  0.97090590  0.36642135  0.74057522     0.08100
H275        H  0.91166189  0.38551760  0.84421768     0.05600
H276        H  0.88902743  0.45593894  0.74855433     0.05500
C277        C  0.05116908  0.54550394  0.23855315     0.02500
C278        C  0.03156950  0.57447780  0.21987258    -0.13600
C279        C  0.03713043  0.58096485  0.18148714     0.00000
C280        C  0.06369104  0.55922341  0.16180728    -0.12200
C281        C  0.08354969  0.52995966  0.17966187     0.02500
C282        C  0.07746325  0.52352871  0.21819563    -0.11600
H283        H  0.01139559  0.59184081  0.23498018     0.08100
H284        H  0.06762708  0.56400490  0.13199178     0.05600
H285        H  0.09147970  0.49998661  0.23166470     0.05500
Zn286      Zn  0.95971896  0.43633240  0.50484507     1.49700
Zn287      Zn  0.95584144  0.51174819  0.45626966     1.49400
Zn288      Zn  0.00077945  0.51024621  0.53493375     1.49100
Zn289      Zn  0.03352958  0.46628143  0.46368946     1.49500
O290        O  0.98744326  0.48139694  0.48986017    -1.84700
O291        O  0.90673961  0.43763688  0.48582133    -0.75400
O292        O  0.94663773  0.56345898  0.47894699    -0.75200
O293        O  0.98135682  0.48500138  0.58142725    -0.74700
O294        O  0.90491739  0.48701791  0.44741133    -0.75400
O295        O  0.95656928  0.43127735  0.56077746    -0.75000
O296        O  0.97720155  0.56173857  0.53344585    -0.75600
O297        O  0.07926954  0.48456466  0.49107656    -0.75000
O298        O  0.98115743  0.51863391  0.40589592    -0.75700
O299        O  0.05750730  0.51584599  0.54077065    -0.75100
O300        O  0.03580253  0.48842148  0.41179048    -0.75600
O301        O  0.03689112  0.40968756  0.45788431    -0.75500
O302        O  0.98358662  0.38946176  0.48393016    -0.75300
C303        C  0.88930460  0.45831670  0.46240974     0.76500
C304        C  0.95658539  0.57897562  0.50974716     0.77000
C305        C  0.96520792  0.45350656  0.58751861     0.76000
C306        C  0.08491096  0.50386897  0.52073877     0.76300
C307        C  0.01287229  0.50807431  0.39248101     0.77500
C308        C  0.01429252  0.38304712  0.46639197     0.76500
C309        C  0.06981208  0.52389810  0.30341572    -0.14000
C310        C  0.04187355  0.53657891  0.27839628     0.08200
C311        C  0.00448351  0.54007253  0.29154929    -0.14000
C312        C  0.99529972  0.53145388  0.32868772    -0.14000
C313        C  0.02310392  0.51844341  0.35352234     0.08200
C314        C  0.06047603  0.51472094  0.34052494    -0.14000
H315        H  0.09892879  0.52129048  0.29441998     0.12200
H316        H  0.98194889  0.54872933  0.27294580     0.12200
H317        H  0.96619369  0.53423332  0.33771894     0.12200
H318        H  0.08257805  0.50490252  0.35910479     0.12200
C319        C  0.94003083  0.39465711  0.67240050    -0.14000
C320        C  0.93824667  0.42226233  0.70070390     0.08200
C321        C  0.94544894  0.46014584  0.69163374    -0.14000
C322        C  0.95450653  0.47024757  0.65484449    -0.14000
C323        C  0.95606884  0.44269131  0.62643004     0.08200
C324        C  0.94857843  0.40481658  0.63548562    -0.14000
H325        H  0.93448483  0.36526868  0.67883323     0.12200
H326        H  0.94467221  0.48182102  0.71313671     0.12200
H327        H  0.96001366  0.49967842  0.64859010     0.12200
H328        H  0.94968920  0.38301275  0.61412846     0.12200
C329        C  0.06862851  0.29672213  0.43381486    -0.14000
C330        C  0.03976547  0.26965392  0.43160703     0.08200
C331        C  0.00274541  0.27983929  0.44142898    -0.14000
C332        C  0.99466887  0.31654517  0.45337471    -0.14000
C333        C  0.02337339  0.34391732  0.45507441     0.08200
C334        C  0.06043990  0.33369619  0.44508615    -0.14000
H335        H  0.09739295  0.28931381  0.42638424     0.12200
H336        H  0.98017845  0.25921651  0.44029212     0.12200
H337        H  0.96582004  0.32363326  0.46076901     0.12200
H338        H  0.08310644  0.35419414  0.44621563     0.12200
C339        C  0.92154856  0.67920742  0.49754977    -0.14000
C340        C  0.92214203  0.69294064  0.53470858     0.08200
C341        C  0.93342100  0.66840064  0.56362169    -0.14000
C342        C  0.94454423  0.63139909  0.55548739    -0.14000
C343        C  0.94405959  0.61787643  0.51834308     0.08200
C344        C  0.93202589  0.64200496  0.48952665    -0.14000
H345        H  0.91397104  0.69743012  0.47437783     0.12200
H346        H  0.93365755  0.67776130  0.59259562     0.12200
H347        H  0.95334376  0.61328417  0.57835000     0.12200
H348        H  0.93163576  0.63242767  0.46061054     0.12200
C349        C  0.79988636  0.44196090  0.40679065    -0.14000
C350        C  0.77598616  0.42564237  0.43404776     0.08200
C351        C  0.78982893  0.42121073  0.47082878    -0.14000
C352        C  0.82663220  0.43186843  0.47983748    -0.14000
C353        C  0.85015904  0.44830841  0.45267969     0.08200
C354        C  0.83640785  0.45368281  0.41617825    -0.14000
H355        H  0.79070081  0.44523202  0.37800324     0.12200
H356        H  0.77217876  0.40996599  0.49298960     0.12200
H357        H  0.83657545  0.42775238  0.50830891     0.12200
H358        H  0.85428089  0.46591604  0.39466736     0.12200
C359        C  0.17166461  0.53008753  0.57786092    -0.14000
C360        C  0.19993086  0.52892838  0.55010805     0.08200
C361        C  0.19011686  0.51937360  0.51313751    -0.14000
C362        C  0.15280407  0.51111650  0.50392535    -0.14000
C363        C  0.12427698  0.51270081  0.53138083     0.08200
C364        C  0.13396729  0.52244005  0.56847009    -0.14000
H365        H  0.17869615  0.53746106  0.60654652     0.12200
H366        H  0.21150366  0.51799165  0.49134291     0.12200
H367        H  0.14623242  0.50384343  0.47510385     0.12200
H368        H  0.11252920  0.52372030  0.59020427     0.12200
C369        C  0.98831664  0.87229324  0.60865910    -0.14000
C370        C  0.99961486  0.86051920  0.64457811     0.08200
C371        C  0.98668551  0.82550105  0.65816674    -0.14000
C372        C  0.96299785  0.80277667  0.63607156    -0.14000
C373        C  0.95162308  0.81494908  0.60026322     0.08200
C374        C  0.96488277  0.84976368  0.58676963    -0.14000
H375        H  0.99713653  0.89935754  0.59756006     0.12200
H376        H  0.99509361  0.81560789  0.68567456     0.12200
H377        H  0.95319305  0.77601860  0.64708693     0.12200
H378        H  0.95722351  0.85961751  0.55901368     0.12200
C379        C  0.05670795  0.93835459  0.79132989    -0.14000
C380        C  0.02793357  0.92686429  0.76661156     0.08200
C381        C  0.99111363  0.92227246  0.78107375    -0.14000
C382        C  0.98340067  0.92889670  0.81911559    -0.14000
C383        C  0.01211842  0.94101834  0.84344988     0.08200
C384        C  0.04882611  0.94567877  0.82912239    -0.14000
H385        H  0.08555038  0.94138020  0.78164894     0.12200
H386        H  0.96795429  0.91427872  0.76294707     0.12200
H387        H  0.95475228  0.92541340  0.82927964     0.12200
H388        H  0.07164492  0.95472247  0.84724931     0.12200
C389        C  0.78545697  0.98516246  0.91942277    -0.14000
C390        C  0.77199657  0.02252755  0.91867110     0.08200
C391        C  0.79659887  0.05200981  0.92881745    -0.14000
C392        C  0.83357518  0.04420597  0.94011219    -0.14000
C393        C  0.84681236  0.00680523  0.94102410     0.08200
C394        C  0.82251221  0.97743020  0.93021169    -0.14000
H395        H  0.76709240  0.96171193  0.91256778     0.12200
H396        H  0.78726666  0.08113873  0.92800455     0.12200
H397        H  0.85186829  0.06743547  0.94790262     0.12200
H398        H  0.83189130  0.94830335  0.93087536     0.12200
C399        C  0.94903323  0.62576598  0.14164094    -0.14000
C400        C  0.96419287  0.65040336  0.11469161     0.08200
C401        C  0.00360599  0.65448878  0.11207819    -0.14000
C402        C  0.02746370  0.63293476  0.13477799    -0.14000
C403        C  0.01230409  0.60737842  0.16086394     0.08200
C404        C  0.97287827  0.60463967  0.16472558    -0.14000
H405        H  0.91873981  0.62218120  0.14415092     0.12200
H406        H  0.01596149  0.67300567  0.09121781     0.12200
H407        H  0.05777134  0.63550440  0.13134581     0.12200
H408        H  0.96052799  0.58481385  0.18436196     0.12200
C409        C  0.91364816  0.82298378  0.00748680    -0.14000
C410        C  0.94928234  0.83859493  0.01479559     0.08200
C411        C  0.97677976  0.81647627  0.03249728    -0.14000
C412        C  0.96904987  0.77920877  0.04240478    -0.14000
C413        C  0.93307126  0.76342736  0.03611925     0.08200
C414        C  0.90541110  0.78594586  0.01854888    -0.14000
H415        H  0.89189225  0.83975302  0.99414290     0.12200
H416        H  0.00463910  0.82783220  0.03802826     0.12200
H417        H  0.99170179  0.76275814  0.05449439     0.12200
H418        H  0.87719788  0.77527514  0.01374866     0.12200
C419        C  0.00214253  0.10812285  0.30490303    -0.14000
C420        C  0.96266068  0.11006148  0.30863653     0.08200
C421        C  0.94689847  0.13646606  0.33368182    -0.14000
C422        C  0.97015470  0.15922152  0.35588897    -0.14000
C423        C  0.00963625  0.15572877  0.35373170     0.08200
C424        C  0.02541362  0.13063028  0.32737353    -0.14000
H425        H  0.01503275  0.08784578  0.28599116     0.12200
H426        H  0.91653595  0.13869488  0.33685452     0.12200
H427        H  0.95723540  0.17812645  0.37614009     0.12200
H428        H  0.05578251  0.12762398  0.32498566     0.12200
C429        C  0.94910748  0.98676710  0.14777249    -0.14000
C430        C  0.94880117  0.01433890  0.11938882     0.08200
C431        C  0.93915508  0.05171073  0.12883618    -0.14000
C432        C  0.93089745  0.06145450  0.16608354    -0.14000
C433        C  0.93132954  0.03386293  0.19435554     0.08200
C434        C  0.94011037  0.99637677  0.18483645    -0.14000
H435        H  0.95622210  0.95770368  0.14130077     0.12200
H436        H  0.93872455  0.07354316  0.10757089     0.12200
H437        H  0.92403128  0.09051083  0.17285408     0.12200
H438        H  0.94080041  0.97469683  0.20625958     0.12200
C439        C  0.18576444  0.92955859  0.99801603    -0.14000
C440        C  0.19630019  0.92248845  0.03532331     0.08200
C441        C  0.16912039  0.92572691  0.06396163    -0.14000
C442        C  0.13191783  0.93565499  0.05536043    -0.14000
C443        C  0.12145935  0.94318042  0.01806187     0.08200
C444        C  0.14876892  0.94009128  0.98948251    -0.14000
H445        H  0.20636785  0.92759124  0.97552735     0.12200
H446        H  0.17664456  0.92029220  0.09292171     0.12200
H447        H  0.11143693  0.93783632  0.07793418     0.12200
H448        H  0.14146282  0.94549693  0.96046314     0.12200
C449        C  0.03040801  0.32603733  0.83392348    -0.14000
C450        C  0.01460230  0.30126749  0.86037537     0.08200
C451        C  0.97518910  0.29675548  0.86174645    -0.14000
C452        C  0.95190600  0.31836940  0.83863354    -0.14000
C453        C  0.96765173  0.34462429  0.81360054     0.08200
C454        C  0.00712241  0.34742582  0.81057851    -0.14000
H455        H  0.06074533  0.32968167  0.83215076     0.12200
H456        H  0.96230111  0.27798756  0.88205537     0.12200
H457        H  0.92153336  0.31562923  0.84127765     0.12200
H458        H  0.01991694  0.36770631  0.79170234     0.12200
C459        C  0.07116393  0.15996321  0.93530403    -0.14000
C460        C  0.04408530  0.18873841  0.93788858     0.08200
C461        C  0.00722870  0.18005695  0.94943958    -0.14000
C462        C  0.99738694  0.14296973  0.95806821    -0.14000
C463        C  0.02412071  0.11379000  0.95471564     0.08200
C464        C  0.06116151  0.12261680  0.94333283    -0.14000
H465        H  0.09967809  0.16629307  0.92618950     0.12200
H466        H  0.98602041  0.20204831  0.95156399     0.12200
H467        H  0.96862033  0.13705864  0.96665178     0.12200
H468        H  0.08234047  0.10068869  0.94059626     0.12200
C469        C  0.15324103  0.09725344  0.45939207    -0.14000
C470        C  0.14944356  0.09801751  0.49870858     0.08200
C471        C  0.12532863  0.12482905  0.51528321    -0.14000
C472        C  0.10467780  0.14975882  0.49295299    -0.14000
C473        C  0.10752090  0.14817139  0.45359472     0.08200
C474        C  0.13233590  0.12199075  0.43703230    -0.14000
H475        H  0.17145535  0.07669293  0.44588396     0.12200
H476        H  0.12217676  0.12623013  0.54552927     0.12200
H477        H  0.08541409  0.16936206  0.50643078     0.12200
H478        H  0.13509684  0.12030536  0.40676238     0.12200
C479        C  0.09767883  0.99710249  0.64849242    -0.14000
C480        C  0.10074569  0.95756261  0.64872882     0.08200
C481        C  0.12826426  0.94012852  0.62609533    -0.14000
C482        C  0.15134718  0.96169946  0.60257938    -0.14000
C483        C  0.14716400  0.00115398  0.60097062     0.08200
C484        C  0.12055316  0.01870401  0.62468019    -0.14000
H485        H  0.07642993  0.01113763  0.66546170     0.12200
H486        H  0.13115124  0.90966463  0.62586552     0.12200
H487        H  0.17131974  0.94731848  0.58441318     0.12200
H488        H  0.11696337  0.04908009  0.62426407     0.12200
C489        C  0.27741873  0.01531557  0.49202107    -0.14000
C490        C  0.26623672  0.02488357  0.52867677     0.08200
C491        C  0.29320932  0.02525974  0.55749138    -0.14000
C492        C  0.33089326  0.01634131  0.54974056    -0.14000
C493        C  0.34204235  0.00616233  0.51317193     0.08200
C494        C  0.31492635  0.00571225  0.48438633    -0.14000
H495        H  0.25697369  0.01472047  0.46942900     0.12200
H496        H  0.28513797  0.03280599  0.58590938     0.12200
H497        H  0.35119480  0.01691146  0.57244737     0.12200
H498        H  0.32276157  0.99820415  0.45589791     0.12200
C499        C  0.31188774  0.98863194  0.10503215    -0.14000
C500        C  0.31427710  0.94905915  0.10711480     0.08200
C501        C  0.33928166  0.93256577  0.13287710    -0.14000
C502        C  0.36241657  0.95523178  0.15524888    -0.14000
C503        C  0.36126676  0.99475515  0.15189299     0.08200
C504        C  0.33537378  0.01129120  0.12706495    -0.14000
H505        H  0.29307763  0.00201433  0.08512442     0.12200
H506        H  0.34149018  0.90212904  0.13506658     0.12200
H507        H  0.38243565  0.94184232  0.17395982     0.12200
H508        H  0.33398054  0.04170721  0.12410578     0.12200
C509        C  0.45090327  0.05043708  0.29146682    -0.14000
C510        C  0.43606233  0.02235796  0.26765957     0.08200
C511        C  0.42981251  0.98597187  0.28236542    -0.14000
C512        C  0.43729206  0.97816219  0.31998723    -0.14000
C513        C  0.45226104  0.00617431  0.34348089     0.08200
C514        C  0.45936462  0.04226618  0.32890471    -0.14000
H515        H  0.45551848  0.07889677  0.28139296     0.12200
H516        H  0.41956222  0.96323137  0.26477797     0.12200
H517        H  0.43208280  0.94995113  0.33055326     0.12200
H518        H  0.47069648  0.06436919  0.34669181     0.12200
C519        C  0.80071615  0.82083217  0.45908505    -0.14000
C520        C  0.81367600  0.85676196  0.44818299     0.08200
C521        C  0.84774973  0.87026853  0.46316082    -0.14000
C522        C  0.86851174  0.84860987  0.48817316    -0.14000
C523        C  0.85555898  0.81297450  0.49973037     0.08200
C524        C  0.82160614  0.79900902  0.48458951    -0.14000
H525        H  0.77455040  0.80970595  0.44793671     0.12200
H526        H  0.85821077  0.89811353  0.45607482     0.12200
H527        H  0.89501440  0.85989420  0.49834830     0.12200
H528        H  0.81095131  0.77159099  0.49288683     0.12200
C529        C  0.80511397  0.97341088  0.32151617    -0.14000
C530        C  0.81541669  0.96229392  0.35788763     0.08200
C531        C  0.84910308  0.97622247  0.37340749    -0.14000
C532        C  0.87277721  0.99966082  0.35255189    -0.14000
C533        C  0.86330672  0.00992745  0.31563875     0.08200
C534        C  0.82895824  0.99690863  0.30047463    -0.14000
H535        H  0.77922133  0.96304968  0.30903848     0.12200
H536        H  0.85742572  0.96843650  0.40161982     0.12200
H537        H  0.89914551  0.00873376  0.36500784     0.12200
H538        H  0.82064975  0.00472632  0.27229464     0.12200
C539        C  0.66869942  0.94271366  0.39539396    -0.14000
C540        C  0.69375019  0.92634915  0.42141332     0.08200
C541        C  0.68088090  0.92013412  0.45838053    -0.14000
C542        C  0.64399134  0.92931463  0.46882600    -0.14000
C543        C  0.61931486  0.94596615  0.44296699     0.08200
C544        C  0.63198879  0.95284000  0.40621110    -0.14000
H545        H  0.67732175  0.94749000  0.36659512     0.12200
H546        H  0.69944957  0.90884808  0.47968918     0.12200
H547        H  0.63492686  0.92402507  0.49743317     0.12200
H548        H  0.61322280  0.96524480  0.38564328     0.12200
C549        C  0.63149640  0.92681243  0.83145595    -0.14000
C550        C  0.60551169  0.94245797  0.80604563     0.08200
C551        C  0.60551870  0.98175758  0.80031590    -0.14000
C552        C  0.62965224  0.00506692  0.82084504    -0.14000
C553        C  0.65445484  0.98958558  0.84735238     0.08200
C554        C  0.65591820  0.95018750  0.85180782    -0.14000
H555        H  0.63235220  0.89660216  0.83613503     0.12200
H556        H  0.58560610  0.99472005  0.78121863     0.12200
H557        H  0.62809000  0.03537220  0.81695381     0.12200
H558        H  0.67461519  0.93766297  0.87236583     0.12200
C559        C  0.52169598  0.88739556  0.66632014    -0.14000
C560        C  0.52610135  0.91554720  0.69378425     0.08200
C561        C  0.52055373  0.95354732  0.68393258    -0.14000
C562        C  0.51116177  0.96332001  0.64716606    -0.14000
C563        C  0.50785277  0.93532250  0.61940119     0.08200
C564        C  0.51306073  0.89725058  0.62927370    -0.14000
H565        H  0.52590177  0.85793580  0.67333447     0.12200
H566        H  0.52349499  0.97570153  0.70476790     0.12200
H567        H  0.50740541  0.99286616  0.64023417     0.12200
H568        H  0.51041927  0.87515233  0.60834910     0.12200
C569        C  0.33043770  0.65000829  0.47778266    -0.14000
C570        C  0.36548532  0.63609860  0.46511253     0.08200
C571        C  0.37728841  0.60014358  0.47691376    -0.14000
C572        C  0.35495868  0.57875015  0.50102766    -0.14000
C573        C  0.32034489  0.59282473  0.51440918     0.08200
C574        C  0.30791778  0.62841318  0.50209252    -0.14000
H575        H  0.32050872  0.67750417  0.46890918     0.12200
H576        H  0.40434116  0.58876856  0.46819967     0.12200
H577        H  0.36493326  0.55109513  0.50940665     0.12200
H578        H  0.28125950  0.63982230  0.51190805     0.12200
C579        C  0.47774690  0.80715788  0.45142365    -0.14000
C580        C  0.44843300  0.83386171  0.45327092     0.08200
C581        C  0.41107693  0.82201632  0.44701798    -0.14000
C582        C  0.40321011  0.78405531  0.43936975    -0.14000
C583        C  0.43263356  0.75753171  0.43712693     0.08200
C584        C  0.46995005  0.76942647  0.44317144    -0.14000
H585        H  0.50681943  0.81551594  0.45594336     0.12200
H586        H  0.38794980  0.84201568  0.44836329     0.12200
H587        H  0.37424191  0.77548468  0.43460409     0.12200
H588        H  0.49306662  0.74940353  0.44185233     0.12200
C589        C  0.61330539  0.29819072  0.46753554    -0.14000
C590        C  0.61421890  0.30221495  0.50683725     0.08200
C591        C  0.64010127  0.32758879  0.52289095    -0.14000
C592        C  0.66344081  0.34964143  0.50001677    -0.14000
C593        C  0.66106334  0.34698134  0.46068840     0.08200
C594        C  0.63638134  0.32046795  0.44468529    -0.14000
H595        H  0.59340683  0.27911233  0.45434963     0.12200
H596        H  0.64160611  0.33101814  0.55308565     0.12200
H597        H  0.68201237  0.37012897  0.51304069     0.12200
H598        H  0.63414815  0.31782547  0.41445394     0.12200
C599        C  0.53817744  0.17447036  0.49475046    -0.14000
C600        C  0.53598808  0.18728142  0.53218448     0.08200
C601        C  0.52347658  0.16209828  0.56004412    -0.14000
C602        C  0.51358225  0.12504581  0.55075647    -0.14000
C603        C  0.51646497  0.11215041  0.51349038     0.08200
C604        C  0.52884191  0.13724101  0.48557248    -0.14000
H605        H  0.54675201  0.19330572  0.47237488     0.12200
H606        H  0.52190677  0.17079786  0.58918590     0.12200
H607        H  0.50425359  0.10627961  0.57291196     0.12200
H608        H  0.53086193  0.12823325  0.45653429     0.12200
C609        C  0.50474320  0.14412973  0.13666041    -0.14000
C610        C  0.51446474  0.13227137  0.10016974     0.08200
C611        C  0.50014970  0.09774244  0.08681307    -0.14000
C612        C  0.47710366  0.07537835  0.10929032    -0.14000
C613        C  0.46709216  0.08708727  0.14566145     0.08200
C614        C  0.48135534  0.12159922  0.15931806    -0.14000
H615        H  0.51543436  0.17055290  0.14770520     0.12200
H616        H  0.50646542  0.08805822  0.05859880     0.12200
H617        H  0.46726145  0.04866537  0.09813818     0.12200
H618        H  0.47399147  0.13136816  0.18724317     0.12200
C619        C  0.59269893  0.09846385  0.98284484    -0.14000
C620        C  0.60620787  0.13354410  0.99549279     0.08200
C621        C  0.64151835  0.14635885  0.98269979    -0.14000
C622        C  0.66328949  0.12390495  0.95840913    -0.14000
C623        C  0.64985129  0.08852366  0.94629688     0.08200
C624        C  0.61428911  0.07618443  0.95876755    -0.14000
H625        H  0.56532933  0.08809047  0.99175945     0.12200
H626        H  0.65256219  0.17327367  0.99211584     0.12200
H627        H  0.69055677  0.13415060  0.94908596     0.12200
H628        H  0.60338411  0.04882333  0.95053656     0.12200
C629        C  0.50702646  0.27004384  0.04284184    -0.14000
C630        C  0.54290981  0.25505568  0.03417684     0.08200
C631        C  0.56970603  0.27912233  0.01717047    -0.14000
C632        C  0.56055287  0.31655828  0.00831325    -0.14000
C633        C  0.52482653  0.33121394  0.01729988     0.08200
C634        C  0.49835770  0.30772974  0.03504236    -0.14000
H635        H  0.48504636  0.25260089  0.05484632     0.12200
H636        H  0.59792348  0.26922942  0.01078850     0.12200
H637        H  0.58165126  0.33426903  0.99505417     0.12200
H638        H  0.47047393  0.31827594  0.04203000     0.12200
C639        C  0.16671151  0.32156821  0.99980947    -0.14000
C640        C  0.15278109  0.35676105  0.01197036     0.08200
C641        C  0.11742206  0.36899994  0.99886375    -0.14000
C642        C  0.09616837  0.34644722  0.97477766    -0.14000
C643        C  0.10974234  0.31109286  0.96292062     0.08200
C644        C  0.14524861  0.29880774  0.97564965    -0.14000
H645        H  0.19385917  0.31141848  0.00946230     0.12200
H646        H  0.10618632  0.39626441  0.00707827     0.12200
H647        H  0.06869161  0.35647162  0.96591297     0.12200
H648        H  0.15640110  0.27171083  0.96680927     0.12200
C649        C  0.11636446  0.46760141  0.09958120    -0.14000
C650        C  0.15182393  0.45488196  0.11200730     0.08200
C651        C  0.16501729  0.46718486  0.14723004    -0.14000
C652        C  0.14290181  0.49139152  0.16959381    -0.14000
C653        C  0.10745319  0.50398475  0.15689218     0.08200
C654        C  0.09444635  0.49153544  0.12176039    -0.14000
H655        H  0.10558094  0.45938675  0.07231704     0.12200
H656        H  0.19217443  0.45781003  0.15759041     0.12200
H657        H  0.15365487  0.50062994  0.19654410     0.12200
H658        H  0.06702619  0.50013837  0.11139727     0.12200
C659        C  0.28374159  0.42950142  0.00783315    -0.14000
C660        C  0.27299264  0.42305459  0.04528678     0.08200
C661        C  0.30045341  0.42556585  0.07362944    -0.14000
C662        C  0.33814466  0.43369270  0.06448430    -0.14000
C663        C  0.34877231  0.44028687  0.02694431     0.08200
C664        C  0.32110201  0.43829617  0.99880359    -0.14000
H665        H  0.26304767  0.42820746  0.98550032     0.12200
H666        H  0.29282592  0.42071716  0.10271038     0.12200
H667        H  0.35888145  0.43519408  0.08676005     0.12200
H668        H  0.32843835  0.44309062  0.96963818     0.12200
C669        C  0.49883025  0.79750381  0.86323595    -0.14000
C670        C  0.45921662  0.79973522  0.86216764     0.08200
C671        C  0.44207915  0.82354568  0.83567169    -0.14000
C672        C  0.46409999  0.84556855  0.81150063    -0.14000
C673        C  0.50375843  0.84447323  0.81354683     0.08200
C674        C  0.52086666  0.81978225  0.83929711    -0.14000
H675        H  0.51276823  0.77960202  0.88357327     0.12200
H676        H  0.41157955  0.82559911  0.83413143     0.12200
H677        H  0.45007379  0.86455625  0.79223400     0.12200
H678        H  0.55135621  0.81813136  0.84129309     0.12200
C679        C  0.36240827  0.80058300  0.00197214    -0.14000
C680        C  0.36055772  0.80262749  0.96259104     0.08200
C681        C  0.33469768  0.82760965  0.94598297    -0.14000
C682        C  0.31179785  0.85077486  0.96831174    -0.14000
C683        C  0.31462039  0.84968629  0.00767597     0.08200
C684        C  0.33977832  0.82399109  0.02428623    -0.14000
H685        H  0.38237454  0.78186931  0.01550540     0.12200
H686        H  0.33262560  0.82959695  0.91569233     0.12200
H687        H  0.29290917  0.87056680  0.95476722     0.12200
H688        H  0.34234093  0.82244571  0.05456583     0.12200
C689        C  0.41261921  0.61866756  0.94980245    -0.14000
C690        C  0.45019757  0.60823321  0.95711209     0.08200
C691        C  0.47866677  0.63579254  0.95479584    -0.14000
C692        C  0.46986923  0.67289544  0.94481712    -0.14000
C693        C  0.43234277  0.68337506  0.93766647     0.08200
C694        C  0.40371523  0.65605069  0.94056957    -0.14000
H695        H  0.39012175  0.59801687  0.95155929     0.12200
H696        H  0.50788243  0.62852518  0.96015803     0.12200
H697        H  0.49234723  0.69358011  0.94310882     0.12200
H698        H  0.37456715  0.66354620  0.93515076     0.12200
C699        C  0.85931006  0.57865686  0.98080272    -0.14000
C700        C  0.82398176  0.59082767  0.96756945     0.08200
C701        C  0.81107087  0.62704674  0.97751276    -0.14000
C702        C  0.83353964  0.65083567  0.99977057    -0.14000
C703        C  0.86900522  0.63853535  0.01273442     0.08200
C704        C  0.88156536  0.60221624  0.00289199    -0.14000
H705        H  0.86984269  0.55072573  0.97398961     0.12200
H706        H  0.78402783  0.63713832  0.96751288     0.12200
H707        H  0.82313548  0.67867726  0.00707838     0.12200
H708        H  0.90897240  0.59210789  0.01186351     0.12200
C709        C  0.81443081  0.48401964  0.83186551    -0.14000
C710        C  0.82576341  0.49299408  0.86859261     0.08200
C711        C  0.86005556  0.47852193  0.88214342    -0.14000
C712        C  0.88284983  0.45599041  0.85944519    -0.14000
C713        C  0.87181303  0.44694346  0.82264813     0.08200
C714        C  0.83740354  0.46129343  0.80896254    -0.14000
H715        H  0.78816822  0.49499494  0.82078508     0.12200
H716        H  0.86928778  0.48465301  0.91050445     0.12200
H717        H  0.90949368  0.44610237  0.87063324     0.12200
H718        H  0.82813445  0.45466408  0.78074594     0.12200
C719        C  0.67807284  0.54986686  0.94711883    -0.14000
C720        C  0.70361625  0.52172971  0.93532472     0.08200
C721        C  0.69039705  0.48429811  0.93226169    -0.14000
C722        C  0.65277137  0.47534483  0.94051746    -0.14000
C723        C  0.62748362  0.50341583  0.95270431     0.08200
C724        C  0.64058869  0.54077964  0.95595393    -0.14000
H725        H  0.68693159  0.57905265  0.94929155     0.12200
H726        H  0.70926920  0.46160915  0.92422465     0.12200
H727        H  0.64367309  0.44623264  0.93809756     0.12200
H728        H  0.62173800  0.56312844  0.96502893     0.12200
C729        C  0.37967816  0.46234563  0.62414238    -0.14000
C730        C  0.36729060  0.44879562  0.65908499     0.08200
C731        C  0.33172025  0.46036123  0.67264777    -0.14000
C732        C  0.30882425  0.48453378  0.65111024    -0.14000
C733        C  0.32139927  0.49771514  0.61592343     0.08200
C734        C  0.35698011  0.48592408  0.60275388    -0.14000
H735        H  0.40717800  0.45462713  0.61312941     0.12200
H736        H  0.32146597  0.45028232  0.69950598     0.12200
H737        H  0.28156656  0.49312502  0.66203271     0.12200
H738        H  0.36734101  0.49455529  0.57543914     0.12200
C739        C  0.47924767  0.36549112  0.61882897    -0.14000
C740        C  0.46595657  0.35032706  0.65283879     0.08200
C741        C  0.47672757  0.31349770  0.66284542    -0.14000
C742        C  0.49967860  0.29199610  0.63870490    -0.14000
C743        C  0.51259135  0.30721547  0.60446603     0.08200
C744        C  0.50213315  0.34423046  0.59495402    -0.14000
H745        H  0.47189435  0.39401528  0.61063061     0.12200
H746        H  0.46685843  0.30118246  0.68890905     0.12200
H747        H  0.50747119  0.26358367  0.64683054     0.12200
H748        H  0.51106350  0.35661608  0.56859095     0.12200
C749        C  0.47535689  0.41158412  0.78875721    -0.14000
C750        C  0.43751018  0.41300511  0.77663533     0.08200
C751        C  0.40942969  0.42308362  0.80280890    -0.14000
C752        C  0.41898127  0.43232348  0.83978705    -0.14000
C753        C  0.45680288  0.43124104  0.85171621     0.08200
C754        C  0.48484247  0.42031372  0.82593720    -0.14000
H755        H  0.49789116  0.40472285  0.76930072     0.12200
H756        H  0.37997606  0.42386264  0.79472134     0.12200
H757        H  0.39665265  0.44024429  0.85912156     0.12200
H758        H  0.51424297  0.41946908  0.83424048     0.12200
C759        C  0.63192813  0.50945506  0.34484297    -0.14000
C760        C  0.60685887  0.49242679  0.31940717     0.08200
C761        C  0.60703685  0.45289695  0.31556759    -0.14000
C762        C  0.63091343  0.43078830  0.33772416    -0.14000
C763        C  0.65522722  0.44784031  0.36387676     0.08200
C764        C  0.65590439  0.48739600  0.36680677    -0.14000
H765        H  0.63263154  0.53987257  0.34808285     0.12200
H766        H  0.58779602  0.43900936  0.29638380     0.12200
H767        H  0.63002406  0.40033602  0.33484707     0.12200
H768        H  0.67406449  0.50124119  0.38703717     0.12200
C769        C  0.46957915  0.59411721  0.31489312    -0.14000
C770        C  0.50903118  0.59393358  0.31904279     0.08200
C771        C  0.52571995  0.61835731  0.34538538    -0.14000
C772        C  0.50324574  0.64151789  0.36810965    -0.14000
C773        C  0.46372628  0.64030759  0.36509209     0.08200
C774        C  0.44713439  0.61697257  0.33784166    -0.14000
H775        H  0.45595739  0.57531615  0.29508958     0.12200
H776        H  0.55610070  0.61891244  0.34892511     0.12200
H777        H  0.51660997  0.65912822  0.38914144     0.12200
H778        H  0.41669504  0.61575030  0.33498864     0.12200
C779        C  0.52047368  0.47576453  0.15279297    -0.14000
C780        C  0.51869579  0.50475289  0.12594287     0.08200
C781        C  0.52558916  0.54217952  0.13717164    -0.14000
C782        C  0.53381316  0.55045552  0.17468576    -0.14000
C783        C  0.53593655  0.52137091  0.20138535     0.08200
C784        C  0.52928286  0.48396710  0.19009971    -0.14000
H785        H  0.51538497  0.44664469  0.14488505     0.12200
H786        H  0.52421622  0.56505529  0.11705938     0.12200
H787        H  0.53896298  0.57950720  0.18279435     0.12200
H788        H  0.53038551  0.46113689  0.21029034     0.12200
loop_ 
_geom_bond_atom_site_label_1 
_geom_bond_atom_site_label_2 
_geom_bond_distance 
_geom_bond_site_symmetry_2 
_ccdc_geom_bond_type 
C1            C2   1.403       .  A
C1            C6   1.404       .  A
C1          C783   1.477       .  S
C2            C3   1.403       .  A
C2            H7   1.084       .  S
C3            C4   1.403       .  A
C3          C770   1.480       .  S
C4            C5   1.404       .  A
C4            H8   1.084       .  S
C5            C6   1.403       .  A
C5          C760   1.482       .  S
C6            H9   1.084       .  S
C10          C11   1.412       .  A
C10          C15   1.414       .  A
C10         C750   1.492       .  S
C11          C12   1.403       .  A
C11          H16   1.083       .  S
C12          C13   1.399       .  A
C12         C740   1.484       .  S
C13          C14   1.401       .  A
C13          H17   1.084       .  S
C14          C15   1.404       .  A
C14         C730   1.487       .  S
C15          H18   1.083       .  S
C19          C20   1.412       .  A
C19          C24   1.414       .  A
C19         C720   1.496       .  S
C20          C21   1.403       .  A
C20          H25   1.082       .  S
C21          C22   1.397       .  A
C21         C710   1.481       .  S
C22          C23   1.399       .  A
C22          H26   1.084       .  S
C23          C24   1.406       .  A
C23         C700   1.484       .  S
C24          H27   1.083       .  S
C28          C29   1.403       .  A
C28          C33   1.405       .  A
C28         C693   1.480       .  S
C29          C30   1.404       .  A
C29          H34   1.084       .  S
C30          C31   1.405       .  A
C30         C680   1.483       .  S
C31          C32   1.405       .  A
C31          H35   1.084       .  S
C32          C33   1.404       .  A
C32         C670   1.484       .  S
C33          H36   1.084       .  S
C37          C38   1.409       .  A
C37          C42   1.408       .  A
C37         C660   1.484       .  S
C38          C39   1.407       .  A
C38          H43   1.083       .  S
C39          C40   1.404       .  A
C39         C650   1.489       .  S
C40          C41   1.402       .  A
C40          H44   1.083       .  S
C41          C42   1.402       .  A
C41         C640   1.486       .  S
C42          H45   1.084       .  S
C46          C47   1.413       .  A
C46          C51   1.415       .  A
C46         C630   1.499       .  S
C47          C48   1.403       .  A
C47          H52   1.082   1_554  S
C48          C49   1.398       .  A
C48         C620   1.482   1_554  S
C49          C50   1.399       .  A
C49          H53   1.084       .  S
C50          C51   1.405       .  A
C50         C610   1.486       .  S
C51          H54   1.081       .  S
Zn55         O59   1.961   1_554  S
Zn55         O60   2.020       .  S
Zn55         O64   2.009   1_554  S
Zn55         O71   2.021   1_554  S
Zn56         O59   1.959   1_554  S
Zn56         O61   2.027       .  S
Zn56         O63   2.001       .  S
Zn56         O67   2.010       .  S
Zn57         O59   1.958       .  S
Zn57         O62   2.027       .  S
Zn57         O65   2.016       .  S
Zn57         O68   2.006       .  S
Zn58         O59   1.971       .  S
Zn58         O66   2.040       .  S
Zn58         O69   2.037       .  S
Zn58         O70   2.036       .  S
O60          C72   1.274       .  A
O61          C73   1.273       .  A
O62          C74   1.274       .  A
O63          C72   1.273       .  A
O64          C74   1.273       .  A
O65          C73   1.273   1_556  A
O66          C75   1.277       .  A
O67          C76   1.273       .  A
O68          C75   1.274       .  A
O69          C76   1.276   1_556  A
O70          C77   1.276       .  A
O71          C77   1.274       .  A
C72         C780   1.475       .  S
C73         C663   1.481       .  S
C74         C690   1.478       .  S
C75         C753   1.482       .  S
C76         C633   1.479       .  S
C77         C723   1.486       .  S
C78          C79   1.406       .  A
C78          C83   1.408       .  A
C78         C600   1.488       .  S
C79          C80   1.401       .  A
C79          H84   1.083       .  S
C80          C81   1.403       .  A
C80         C590   1.484       .  S
C81          C82   1.406       .  A
C81          H85   1.083       .  S
C82          C83   1.405       .  A
C82         C743   1.487       .  S
C83          H86   1.083       .  S
C87          C88   1.404       .  A
C87          C92   1.406       .  A
C87         C583   1.478       .  S
C88          C89   1.399       .  A
C88          H93   1.084       .  S
C89          C90   1.401       .  A
C89         C773   1.477       .  S
C90          C91   1.404       .  A
C90          H94   1.084       .  S
C91          C92   1.406       .  A
C91         C570   1.485       .  S
C92          H95   1.083       .  S
C96          C97   1.403       .  A
C96         C101   1.401       .  A
C96         C560   1.478       .  S
C97          C98   1.406       .  A
C97         H102   1.084       .  S
C98          C99   1.408       .  A
C98         C673   1.486       .  S
C99         C100   1.406       .  A
C99         H103   1.083       .  S
C100        C101   1.402       .  A
C100        C550   1.484       .  S
C101        H104   1.084       .  S
C105        C106   1.412       .  A
C105        C110   1.412       .  A
C105        C540   1.493       .  S
C106        C107   1.402       .  A
C106        H111   1.082       .  S
C107        C108   1.400       .  A
C107        C520   1.485       .  S
C108        C109   1.399       .  A
C108        H112   1.084       .  S
C109        C110   1.403       .  A
C109        C530   1.481       .  S
C110        H113   1.083       .  S
C114        C115   1.410       .  A
C114        C119   1.407       .  A
C114        C510   1.488       .  S
C115        C116   1.405       .  A
C115        H120   1.083       .  S
C116        C117   1.405       .  A
C116        C613   1.485       .  S
C117        C118   1.400       .  A
C117        H121   1.083       .  S
C118        C119   1.399       .  A
C118        C503   1.478   1_545  S
C119        H122   1.083   1_545  S
C123        C124   1.402       .  A
C123        C128   1.403       .  A
C123        C490   1.476       .  S
C124        C125   1.402       .  A
C124        H129   1.084       .  S
C125        C126   1.405       .  A
C125        C470   1.481       .  S
C126        C127   1.406       .  A
C126        H130   1.084       .  S
C127        C128   1.405       .  A
C127        C483   1.485       .  S
C128        H131   1.084   1_545  S
Zn132       O136   1.954   1_545  S
Zn132       O137   2.007       .  S
Zn132       O141   2.011   1_545  S
Zn132       O148   2.017       .  S
Zn133       O136   1.962   1_545  S
Zn133       O138   2.028   1_545  S
Zn133       O140   2.022       .  S
Zn133       O144   2.009       .  S
Zn134       O136   1.949       .  S
Zn134       O139   2.013       .  S
Zn134       O142   2.007       .  S
Zn134       O145   2.006       .  S
Zn135       O136   1.953       .  S
Zn135       O143   2.015       .  S
Zn135       O146   2.003       .  S
Zn135       O147   2.007       .  S
O137        C149   1.273       .  A
O138        C150   1.275       .  A
O139        C151   1.273       .  A
O140        C149   1.275       .  A
O141        C151   1.273       .  A
O142        C150   1.273       .  A
O143        C152   1.273       .  A
O144        C153   1.272   1_545  A
O145        C152   1.272       .  A
O146        C153   1.272       .  A
O147        C154   1.273       .  A
O148        C154   1.274   1_545  A
C149        C603   1.478       .  S
C150        C543   1.475       .  S
C151        C563   1.474       .  S
C152        C580   1.476       .  S
C153        C513   1.469   1_565  S
C154        C493   1.477   1_565  S
C155        C156   1.400       .  A
C155        C160   1.403       .  A
C155        C460   1.470       .  S
C156        C157   1.398       .  A
C156        H161   1.084       .  S
C157        C158   1.403       .  A
C157        C450   1.478       .  S
C158        C159   1.406       .  A
C158        H162   1.084       .  S
C159        C160   1.406       .  A
C159        C643   1.484       .  S
C160        H163   1.084       .  S
C164        C165   1.405       .  A
C164        C169   1.403       .  A
C164        C440   1.478       .  S
C165        C166   1.404       .  A
C165        H170   1.084       .  S
C166        C167   1.404       .  A
C166        C683   1.483       .  S
C167        C168   1.404       .  A
C167        H171   1.084       .  S
C168        C169   1.402       .  A
C168        C500   1.479       .  S
C169        H172   1.084       .  S
C173        C174   1.404       .  A
C173        C178   1.404       .  A
C173        C433   1.479       .  S
C174        C175   1.403       .  A
C174        H179   1.084       .  S
C175        C176   1.405       .  A
C175        C420   1.483       .  S
C176        C177   1.406       .  A
C176        H180   1.083       .  S
C177        C178   1.405       .  A
C177        C533   1.488       .  S
C178        H181   1.084       .  S
C182        C183   1.411       .  A
C182        C187   1.410       .  A
C182        C413   1.494       .  S
C183        C184   1.405       .  A
C183        H188   1.082       .  S
C184        C185   1.404       .  A
C184        C703   1.485       .  S
C185        C186   1.399       .  A
C185        H189   1.084       .  S
C186        C187   1.400       .  A
C186        C400   1.480       .  S
C187        H190   1.082       .  S
C191        C192   1.408       .  A
C191        C196   1.408       .  A
C191        C390   1.485       .  S
C192        C193   1.403       .  A
C192        H197   1.083       .  S
C193        C194   1.403       .  A
C193        C623   1.483       .  S
C194        C195   1.400       .  A
C194        H198   1.084       .  S
C195        C196   1.401       .  A
C195        C553   1.479   1_545  S
C196        H199   1.083   1_545  S
C200        C201   1.411       .  A
C200        C205   1.412       .  A
C200        C380   1.494       .  S
C201        C202   1.405       .  A
C201        H206   1.082   1_455  S
C202        C203   1.402       .  A
C202        C370   1.486   1_455  S
C203        C204   1.399       .  A
C203        H207   1.084       .  S
C204        C205   1.403       .  A
C204        C480   1.481       .  S
C205        H208   1.083       .  S
Zn209       O213   1.954   1_455  S
Zn209       O214   2.014   1_565  S
Zn209       O218   2.006       .  S
Zn209       O225   2.005       .  S
Zn210       O213   1.957   1_545  S
Zn210       O215   2.015       .  S
Zn210       O217   2.001       .  S
Zn210       O221   2.025   1_556  S
Zn211       O213   1.963       .  S
Zn211       O216   2.032       .  S
Zn211       O219   2.006       .  S
Zn211       O222   2.025       .  S
Zn212       O213   1.951   1_554  S
Zn212       O220   1.998       .  S
Zn212       O223   2.014       .  S
Zn212       O224   2.016   1_655  S
O214        C226   1.273       .  A
O215        C227   1.273   1_545  A
O216        C228   1.275   1_655  A
O217        C226   1.273   1_655  A
O218        C228   1.273       .  A
O219        C227   1.273       .  A
O220        C229   1.272       .  A
O221        C230   1.274       .  A
O222        C229   1.274   1_556  A
O223        C230   1.273   1_565  A
O224        C231   1.273       .  A
O225        C231   1.272   1_556  A
C226        C463   1.476       .  S
C227        C393   1.476   1_565  S
C228        C383   1.481       .  S
C229        C410   1.472       .  S
C230        C430   1.480       .  S
C231        C443   1.477       .  S
C232        C233   1.407       .  A
C232        C237   1.409       .  A
C232        C360   1.479       .  S
C233        C234   1.400       .  A
C233        H238   1.084       .  S
C234        C235   1.400       .  A
C234        C573   1.483       .  S
C235        C236   1.404       .  A
C235        H239   1.084       .  S
C236        C237   1.408       .  A
C236        C733   1.490       .  S
C237        H240   1.083       .  S
C241        C242   1.407       .  A
C241        C246   1.410       .  A
C241        C350   1.492       .  S
C242        C243   1.403       .  A
C242        H247   1.082       .  S
C243        C244   1.401       .  A
C243        C763   1.480       .  S
C244        C245   1.402       .  A
C244        H248   1.084       .  S
C245        C246   1.403       .  A
C245        C593   1.481       .  S
C246        H249   1.082       .  S
C250        C251   1.410       .  A
C250        C255   1.410       .  A
C250        C340   1.489       .  S
C251        C252   1.403       .  A
C251        H256   1.082       .  S
C252        C253   1.402       .  A
C252        C523   1.486       .  S
C253        C254   1.400       .  A
C253        H257   1.084       .  S
C254        C255   1.402       .  A
C254        C373   1.484       .  S
C255        H258   1.083       .  S
C259        C260   1.402       .  A
C259        C264   1.404       .  A
C259        C330   1.475       .  S
C260        C261   1.403       .  A
C260        H265   1.084       .  S
C261        C262   1.404       .  A
C261        C473   1.481       .  S
C262        C263   1.404       .  A
C262        H266   1.084       .  S
C263        C264   1.404       .  A
C263        C423   1.482       .  S
C264        H267   1.084       .  S
C268        C269   1.403       .  A
C268        C273   1.405       .  A
C268        C320   1.475       .  S
C269        C270   1.400       .  A
C269        H274   1.084       .  S
C270        C271   1.402       .  A
C270        C453   1.477       .  S
C271        C272   1.404       .  A
C271        H275   1.083       .  S
C272        C273   1.403       .  A
C272        C713   1.484       .  S
C273        H276   1.083       .  S
C277        C278   1.407       .  A
C277        C282   1.411       .  A
C277        C310   1.489       .  S
C278        C279   1.399       .  A
C278        H283   1.083       .  S
C279        C280   1.400       .  A
C279        C403   1.480       .  S
C280        C281   1.405       .  A
C280        H284   1.084       .  S
C281        C282   1.407       .  A
C281        C653   1.487       .  S
C282        H285   1.083       .  S
Zn286       O290   1.948       .  S
Zn286       O291   1.996       .  S
Zn286       O295   2.002       .  S
Zn286       O302   2.003       .  S
Zn287       O290   1.961       .  S
Zn287       O292   2.025       .  S
Zn287       O294   2.029       .  S
Zn287       O298   2.018       .  S
Zn288       O290   1.959   1_455  S
Zn288       O293   2.002   1_455  S
Zn288       O296   2.005   1_455  S
Zn288       O299   2.029       .  S
Zn289       O290   1.951   1_455  S
Zn289       O297   1.999       .  S
Zn289       O300   2.009       .  S
Zn289       O301   2.017       .  S
O291        C303   1.271       .  A
O292        C304   1.276       .  A
O293        C305   1.272       .  A
O294        C303   1.274       .  A
O295        C305   1.272       .  A
O296        C304   1.273       .  A
O297        C306   1.273       .  A
O298        C307   1.274   1_655  A
O299        C306   1.274       .  A
O300        C307   1.272       .  A
O301        C308   1.273       .  A
O302        C308   1.272   1_655  A
C303        C353   1.472       .  S
C304        C343   1.478       .  S
C305        C323   1.473       .  S
C306        C363   1.478       .  S
C307        C313   1.479       .  S
C308        C333   1.477       .  S
C309        C310   1.406       .  A
C309        C314   1.399       .  A
C309        H315   1.082       .  S
C310        C311   1.408       .  A
C311        C312   1.395   1_455  A
C311        H316   1.082   1_455  S
C312        C313   1.403   1_655  A
C312        H317   1.083       .  S
C313        C314   1.406       .  A
C314        H318   1.083       .  S
C319        C320   1.403       .  A
C319        C324   1.395       .  A
C319        H325   1.083       .  S
C320        C321   1.403       .  A
C321        C322   1.395       .  A
C321        H326   1.083       .  S
C322        C323   1.405       .  A
C322        H327   1.083       .  S
C323        C324   1.405       .  A
C324        H328   1.083       .  S
C329        C330   1.403       .  A
C329        C334   1.398       .  A
C329        H335   1.083       .  S
C330        C331   1.402       .  A
C331        C332   1.395   1_455  A
C331        H336   1.083   1_455  S
C332        C333   1.406   1_655  A
C332        H337   1.083       .  S
C333        C334   1.406       .  A
C334        H338   1.083       .  S
C339        C340   1.408       .  A
C339        C344   1.397       .  A
C339        H345   1.082       .  S
C340        C341   1.406       .  A
C341        C342   1.397       .  A
C341        H346   1.082       .  S
C342        C343   1.405       .  A
C342        H347   1.083       .  S
C343        C344   1.403       .  A
C344        H348   1.083       .  S
C349        C350   1.410       .  A
C349        C354   1.399       .  A
C349        H355   1.082       .  S
C350        C351   1.408       .  A
C351        C352   1.394       .  A
C351        H356   1.082       .  S
C352        C353   1.402       .  A
C352        H357   1.084       .  S
C353        C354   1.402       .  A
C354        H358   1.083       .  S
C359        C360   1.405       .  A
C359        C364   1.403       .  A
C359        H365   1.083       .  S
C360        C361   1.402       .  A
C361        C362   1.393       .  A
C361        H366   1.084       .  S
C362        C363   1.404       .  A
C362        H367   1.083       .  S
C363        C364   1.407       .  A
C364        H368   1.083       .  S
C369        C370   1.404       .  A
C369        C374   1.390       .  A
C369        H375   1.083       .  S
C370        C371   1.408       .  A
C371        C372   1.404       .  A
C371        H376   1.083       .  S
C372        C373   1.406       .  A
C372        H377   1.083       .  S
C373        C374   1.404       .  A
C374        H378   1.083       .  S
C379        C380   1.407       .  A
C379        C384   1.397       .  A
C379        H385   1.082       .  S
C380        C381   1.410   1_455  A
C381        C382   1.400       .  A
C381        H386   1.082       .  S
C382        C383   1.404   1_655  A
C382        H387   1.083       .  S
C383        C384   1.405       .  A
C384        H388   1.083       .  S
C389        C390   1.406   1_565  A
C389        C394   1.395       .  A
C389        H395   1.082       .  S
C390        C391   1.407       .  A
C391        C392   1.398       .  A
C391        H396   1.083       .  S
C392        C393   1.405       .  A
C392        H397   1.083       .  S
C393        C394   1.404   1_545  A
C394        H398   1.083       .  S
C399        C400   1.403       .  A
C399        C404   1.397       .  A
C399        H405   1.083       .  S
C400        C401   1.406   1_655  A
C401        C402   1.398       .  A
C401        H406   1.083       .  S
C402        C403   1.403       .  A
C402        H407   1.083       .  S
C403        C404   1.405   1_455  A
C404        H408   1.083       .  S
C409        C410   1.402       .  A
C409        C414   1.400       .  A
C409        H415   1.083   1_554  S
C410        C411   1.401       .  A
C411        C412   1.393       .  A
C411        H416   1.084   1_655  S
C412        C413   1.409       .  A
C412        H417   1.081       .  S
C413        C414   1.410       .  A
C414        H418   1.082       .  S
C419        C420   1.405   1_455  A
C419        C424   1.398       .  A
C419        H425   1.083       .  S
C420        C421   1.405       .  A
C421        C422   1.397       .  A
C421        H426   1.083       .  S
C422        C423   1.405   1_655  A
C422        H427   1.083       .  S
C423        C424   1.405       .  A
C424        H428   1.083       .  S
C429        C430   1.406   1_565  A
C429        C434   1.398       .  A
C429        H435   1.083       .  S
C430        C431   1.406       .  A
C431        C432   1.399       .  A
C431        H436   1.083       .  S
C432        C433   1.404       .  A
C432        H437   1.083       .  S
C433        C434   1.403   1_545  A
C434        H438   1.083       .  S
C439        C440   1.403   1_556  A
C439        C444   1.396       .  A
C439        H445   1.084       .  S
C440        C441   1.404       .  A
C441        C442   1.398       .  A
C441        H446   1.083       .  S
C442        C443   1.405       .  A
C442        H447   1.083       .  S
C443        C444   1.406   1_554  A
C444        H448   1.083       .  S
C449        C450   1.403       .  A
C449        C454   1.396       .  A
C449        H455   1.083       .  S
C450        C451   1.405   1_455  A
C451        C452   1.395       .  A
C451        H456   1.083       .  S
C452        C453   1.403       .  A
C452        H457   1.083       .  S
C453        C454   1.405   1_655  A
C454        H458   1.083       .  S
C459        C460   1.401       .  A
C459        C464   1.399       .  A
C459        H465   1.083       .  S
C460        C461   1.401       .  A
C461        C462   1.393   1_455  A
C461        H466   1.084   1_455  S
C462        C463   1.405   1_655  A
C462        H467   1.083       .  S
C463        C464   1.407       .  A
C464        H468   1.083       .  S
C469        C470   1.406       .  A
C469        C474   1.397       .  A
C469        H475   1.083       .  S
C470        C471   1.404       .  A
C471        C472   1.396       .  A
C471        H476   1.083       .  S
C472        C473   1.405       .  A
C472        H477   1.083       .  S
C473        C474   1.404       .  A
C474        H478   1.083       .  S
C479        C480   1.404       .  A
C479        C484   1.399   1_565  A
C479        H485   1.083   1_565  S
C480        C481   1.404       .  A
C481        C482   1.397       .  A
C481        H486   1.083       .  S
C482        C483   1.406   1_565  A
C482        H487   1.083       .  S
C483        C484   1.407       .  A
C484        H488   1.083       .  S
C489        C490   1.403       .  A
C489        C494   1.396       .  A
C489        H495   1.083       .  S
C490        C491   1.403       .  A
C491        C492   1.397       .  A
C491        H496   1.083       .  S
C492        C493   1.405       .  A
C492        H497   1.083       .  S
C493        C494   1.406       .  A
C494        H498   1.083   1_545  S
C499        C500   1.405       .  A
C499        C504   1.397   1_565  A
C499        H505   1.083   1_565  S
C500        C501   1.404       .  A
C501        C502   1.396       .  A
C501        H506   1.083       .  S
C502        C503   1.405       .  A
C502        H507   1.083       .  S
C503        C504   1.403   1_565  A
C504        H508   1.083       .  S
C509        C510   1.408       .  A
C509        C514   1.397       .  A
C509        H515   1.082       .  S
C510        C511   1.409   1_545  A
C511        C512   1.394       .  A
C511        H516   1.082       .  S
C512        C513   1.401   1_565  A
C512        H517   1.083       .  S
C513        C514   1.402       .  A
C514        H518   1.083       .  S
C519        C520   1.407       .  A
C519        C524   1.405       .  A
C519        H525   1.083       .  S
C520        C521   1.404       .  A
C521        C522   1.388       .  A
C521        H526   1.083       .  S
C522        C523   1.404       .  A
C522        H527   1.083       .  S
C523        C524   1.408       .  A
C524        H528   1.083       .  S
C529        C530   1.403       .  A
C529        C534   1.402       .  A
C529        H535   1.083       .  S
C530        C531   1.405       .  A
C531        C532   1.393       .  A
C531        H536   1.083       .  S
C532        C533   1.405   1_565  A
C532        H537   1.083   1_565  S
C533        C534   1.409   1_545  A
C534        H538   1.082   1_565  S
C539        C540   1.409       .  A
C539        C544   1.401       .  A
C539        H545   1.082       .  S
C540        C541   1.409       .  A
C541        C542   1.395       .  A
C541        H546   1.082       .  S
C542        C543   1.401       .  A
C542        H547   1.083       .  S
C543        C544   1.404       .  A
C544        H548   1.083       .  S
C549        C550   1.406       .  A
C549        C554   1.399       .  A
C549        H555   1.083       .  S
C550        C551   1.406       .  A
C551        C552   1.395   1_565  A
C551        H556   1.083       .  S
C552        C553   1.402   1_545  A
C552        H557   1.083       .  S
C553        C554   1.405       .  A
C554        H558   1.083       .  S
C559        C560   1.403       .  A
C559        C564   1.399       .  A
C559        H565   1.083       .  S
C560        C561   1.404       .  A
C561        C562   1.395       .  A
C561        H566   1.083       .  S
C562        C563   1.403       .  A
C562        H567   1.083       .  S
C563        C564   1.405       .  A
C564        H568   1.083       .  S
C569        C570   1.407       .  A
C569        C574   1.403       .  A
C569        H575   1.083       .  S
C570        C571   1.405       .  A
C571        C572   1.391       .  A
C571        H576   1.083       .  S
C572        C573   1.404       .  A
C572        H577   1.083       .  S
C573        C574   1.405       .  A
C574        H578   1.083       .  S
C579        C580   1.405       .  A
C579        C584   1.395       .  A
C579        H585   1.083       .  S
C580        C581   1.406       .  A
C581        C582   1.399       .  A
C581        H586   1.083       .  S
C582        C583   1.404       .  A
C582        H587   1.083       .  S
C583        C584   1.404       .  A
C584        H588   1.083       .  S
C589        C590   1.406       .  A
C589        C594   1.397       .  A
C589        H595   1.083       .  S
C590        C591   1.405       .  A
C591        C592   1.398       .  A
C591        H596   1.083       .  S
C592        C593   1.405       .  A
C592        H597   1.083       .  S
C593        C594   1.403       .  A
C594        H598   1.083       .  S
C599        C600   1.408       .  A
C599        C604   1.397       .  A
C599        H605   1.083       .  S
C600        C601   1.406       .  A
C601        C602   1.397       .  A
C601        H606   1.083       .  S
C602        C603   1.405       .  A
C602        H607   1.083       .  S
C603        C604   1.403       .  A
C604        H608   1.083       .  S
C609        C610   1.406       .  A
C609        C614   1.404       .  A
C609        H615   1.083       .  S
C610        C611   1.406       .  A
C611        C612   1.390       .  A
C611        H616   1.083       .  S
C612        C613   1.403       .  A
C612        H617   1.083       .  S
C613        C614   1.408       .  A
C614        H618   1.083       .  S
C619        C620   1.404       .  A
C619        C624   1.391       .  A
C619        H625   1.083       .  S
C620        C621   1.405       .  A
C621        C622   1.402       .  A
C621        H626   1.083       .  S
C622        C623   1.407       .  A
C622        H627   1.083       .  S
C623        C624   1.404       .  A
C624        H628   1.083       .  S
C629        C630   1.409       .  A
C629        C634   1.397       .  A
C629        H635   1.081       .  S
C630        C631   1.411       .  A
C631        C632   1.401       .  A
C631        H636   1.082       .  S
C632        C633   1.403       .  A
C632        H637   1.083   1_554  S
C633        C634   1.403       .  A
C634        H638   1.083       .  S
C639        C640   1.407   1_556  A
C639        C644   1.402       .  A
C639        H645   1.083   1_556  S
C640        C641   1.405   1_554  A
C641        C642   1.393       .  A
C641        H646   1.083   1_556  S
C642        C643   1.404       .  A
C642        H647   1.083       .  S
C643        C644   1.406       .  A
C644        H648   1.083       .  S
C649        C650   1.406       .  A
C649        C654   1.391       .  A
C649        H655   1.083       .  S
C650        C651   1.407       .  A
C651        C652   1.405       .  A
C651        H656   1.083       .  S
C652        C653   1.407       .  A
C652        H657   1.083       .  S
C653        C654   1.404       .  A
C654        H658   1.083       .  S
C659        C660   1.404       .  A
C659        C664   1.396   1_554  A
C659        H665   1.083   1_554  S
C660        C661   1.405       .  A
C661        C662   1.403       .  A
C661        H666   1.083       .  S
C662        C663   1.407       .  A
C662        H667   1.083       .  S
C663        C664   1.404   1_554  A
C664        H668   1.083       .  S
C669        C670   1.405       .  A
C669        C674   1.399       .  A
C669        H675   1.083       .  S
C670        C671   1.405       .  A
C671        C672   1.398       .  A
C671        H676   1.084       .  S
C672        C673   1.406       .  A
C672        H677   1.082       .  S
C673        C674   1.406       .  A
C674        H678   1.083       .  S
C679        C680   1.405   1_554  A
C679        C684   1.397       .  A
C679        H685   1.083       .  S
C680        C681   1.405       .  A
C681        C682   1.398       .  A
C681        H686   1.083       .  S
C682        C683   1.405   1_556  A
C682        H687   1.083       .  S
C683        C684   1.405       .  A
C684        H688   1.083       .  S
C689        C690   1.405       .  A
C689        C694   1.400       .  A
C689        H695   1.083       .  S
C690        C691   1.405       .  A
C691        C692   1.396       .  A
C691        H696   1.083       .  S
C692        C693   1.403       .  A
C692        H697   1.083       .  S
C693        C694   1.405       .  A
C694        H698   1.083       .  S
C699        C700   1.405       .  A
C699        C704   1.391   1_556  A
C699        H705   1.083       .  S
C700        C701   1.405       .  A
C701        C702   1.404       .  A
C701        H706   1.083       .  S
C702        C703   1.408   1_556  A
C702        H707   1.083   1_556  S
C703        C704   1.403       .  A
C704        H708   1.083       .  S
C709        C710   1.404       .  A
C709        C714   1.402       .  A
C709        H715   1.083       .  S
C710        C711   1.404       .  A
C711        C712   1.390       .  A
C711        H716   1.083       .  S
C712        C713   1.404       .  A
C712        H717   1.083       .  S
C713        C714   1.408       .  A
C714        H718   1.083       .  S
C719        C720   1.408       .  A
C719        C724   1.401       .  A
C719        H725   1.082       .  S
C720        C721   1.409       .  A
C721        C722   1.400       .  A
C721        H726   1.082       .  S
C722        C723   1.404       .  A
C722        H727   1.083       .  S
C723        C724   1.406       .  A
C724        H728   1.083       .  S
C729        C730   1.403       .  A
C729        C734   1.388       .  A
C729        H735   1.083       .  S
C730        C731   1.408       .  A
C731        C732   1.408       .  A
C731        H736   1.083       .  S
C732        C733   1.408       .  A
C732        H737   1.083       .  S
C733        C734   1.406       .  A
C734        H738   1.083       .  S
C739        C740   1.405       .  A
C739        C744   1.392       .  A
C739        H745   1.083       .  S
C740        C741   1.405       .  A
C741        C742   1.404       .  A
C741        H746   1.083       .  S
C742        C743   1.409       .  A
C742        H747   1.083       .  S
C743        C744   1.404       .  A
C744        H748   1.083       .  S
C749        C750   1.409       .  A
C749        C754   1.400       .  A
C749        H755   1.082       .  S
C750        C751   1.406       .  A
C751        C752   1.398       .  A
C751        H756   1.083       .  S
C752        C753   1.406       .  A
C752        H757   1.083       .  S
C753        C754   1.404       .  A
C754        H758   1.083       .  S
C759        C760   1.405       .  A
C759        C764   1.395       .  A
C759        H765   1.083       .  S
C760        C761   1.406       .  A
C761        C762   1.398       .  A
C761        H766   1.083       .  S
C762        C763   1.405       .  A
C762        H767   1.083       .  S
C763        C764   1.404       .  A
C764        H768   1.083       .  S
C769        C770   1.405       .  A
C769        C774   1.395       .  A
C769        H775   1.083       .  S
C770        C771   1.405       .  A
C771        C772   1.397       .  A
C771        H776   1.083       .  S
C772        C773   1.404       .  A
C772        H777   1.083       .  S
C773        C774   1.403       .  A
C774        H778   1.083       .  S
C779        C780   1.405       .  A
C779        C784   1.395       .  A
C779        H785   1.083       .  S
C780        C781   1.405       .  A
C781        C782   1.398       .  A
C781        H786   1.083       .  S
C782        C783   1.404       .  A
C782        H787   1.083       .  S
C783        C784   1.403       .  A
C784        H788   1.083       .  S
