geometry optimzed in LAMMPS
_audit_creation_date              2020-12-01 
_audit_creation_method            'lammps2cif' 
_symmetry_space_group_name_H-M    'P1' 
_symmetry_Int_Tables_number       1 
_symmetry_cell_setting            triclinic 
loop_ 
_symmetry_equiv_pos_as_xyz 
  x,y,z 
_cell_length_a                    31.37988326 
_cell_length_b                    31.369368393705876 
_cell_length_c                    31.235103500035592 
_cell_angle_alpha                 90.08293873711646 
_cell_angle_beta                  89.60659524634694 
_cell_angle_gamma                 90.13731945547923 
loop_ 
_atom_site_label 
_atom_site_type_symbol 
_atom_site_fract_x 
_atom_site_fract_y 
_atom_site_fract_z 
_atom_site_charge 
C1          C  0.52727758  0.58188664  0.28073439     0.80600
N2          N  0.55989303  0.56226225  0.30118470    -0.77700
C3          C  0.57415091  0.52349377  0.28837124     0.83100
N4          N  0.55493272  0.50404123  0.25488498    -0.77600
C5          C  0.52266995  0.52325985  0.23367283     0.83200
N6          N  0.50843799  0.56199871  0.24694860    -0.79300
C7          C  0.35858647  0.29260456  0.96257656     0.80600
N8          N  0.37728007  0.31466768  0.99488220    -0.77700
C9          C  0.35976421  0.35146316  0.00942670     0.83100
N10         N  0.32384181  0.36678242  0.99102611    -0.77600
C11         C  0.30430140  0.34474384  0.95921894     0.83200
N12         N  0.32220182  0.30792440  0.94500758    -0.79300
C13         C  0.61238380  0.51723623  0.97771225     0.80600
N14         N  0.63251932  0.54858533  0.99969627    -0.77700
C15         C  0.61678493  0.56314431  0.03757993     0.83100
N16         N  0.58057289  0.54545919  0.05397011    -0.77600
C17         C  0.55989941  0.51438973  0.03190821     0.83200
N18         N  0.57595651  0.50046838  0.99400768    -0.79300
C19         C  0.38527389  0.61739317  0.00345730     0.80600
N20         N  0.35340211  0.63507214  0.02704494    -0.77700
C21         C  0.34105272  0.61753026  0.06499614     0.83100
N22         N  0.36100250  0.58178211  0.07983764    -0.77600
C23         C  0.39254254  0.56360248  0.05577116     0.83200
N24         N  0.40409217  0.58158222  0.01799954    -0.79300
C25         C  0.27026311  0.36303601  0.26645010     0.80600
N26         N  0.24961066  0.33120935  0.24562566    -0.77700
C27         C  0.26478261  0.31542498  0.20798146     0.83100
N28         N  0.30095213  0.33234592  0.19060323    -0.77600
C29         C  0.32221094  0.36384159  0.21151410     0.83200
N30         N  0.30664756  0.37906617  0.24918706    -0.79300
C31         C  0.50443366  0.25638329  0.22917334     0.80600
N32         N  0.48640745  0.29423495  0.21938483    -0.77700
C33         C  0.49309924  0.31301881  0.18079945     0.83100
N34         N  0.51912734  0.29371128  0.15127038    -0.77600
C35         C  0.53772660  0.25550137  0.16109697     0.83200
N36         N  0.52979932  0.23723746  0.19975140    -0.79300
O37         O  0.38958543  0.41740331  0.02845203    -0.80500
O38         O  0.48241888  0.51380104  0.16943595    -0.65200
O39         O  0.45622649  0.43051202  0.08458086    -1.11800
C40         C  0.36119214  0.38278249  0.19360721     1.06400
O41         O  0.49376033  0.45834925  0.21113452    -0.78400
O42         O  0.46490196  0.37756754  0.20508169    -0.65900
Ni43       Ni  0.44505820  0.44395646  0.02718357     1.34900
C44         C  0.47057442  0.35353810  0.17287649     0.85200
O45         O  0.51156461  0.50035085  0.08851237    -0.78900
O46         O  0.49981954  0.47100855  0.02335661    -0.89200
C47         C  0.49826196  0.49779941  0.20314791     0.84700
O48         O  0.41932525  0.49805047  0.03519266    -0.67400
O49         O  0.38405272  0.40472278  0.21931222    -0.86700
C50         C  0.41313466  0.52294267  0.06659025     0.85600
C51         C  0.52133952  0.49425809  0.04911388     1.07100
H52         H  0.40112845  0.46495663  0.15913122     0.38900
O53         O  0.42571881  0.44658725  0.15750830    -1.09300
O54         O  0.45506190  0.36159096  0.13627944    -0.66000
Ni55       Ni  0.41304527  0.40291716  0.11760483     1.26300
O56         O  0.42675361  0.51547758  0.10420263    -0.66200
O57         O  0.37000087  0.37720322  0.15384418    -0.78500
C58         C  0.38388479  0.37856986  0.03857612     0.84900
O59         O  0.39910937  0.36365111  0.07298103    -0.65700
Ni60       Ni  0.43869640  0.43165031  0.21421101     1.27400
Ni61       Ni  0.46862679  0.47448136  0.12439571     1.26100
H62         H  0.48096454  0.41222048  0.08368881     0.39500
C63         C  0.49725730  0.11593851  0.74026417     0.80600
N64         N  0.47756270  0.08016916  0.72633367    -0.77700
C65         C  0.48665371  0.06301615  0.68737398     0.83100
N66         N  0.51690866  0.08186969  0.66176800    -0.77600
C67         C  0.53736357  0.11790908  0.67591884     0.83200
N68         N  0.52694163  0.13441520  0.71482423    -0.79300
C69         C  0.38649613  0.76063081  0.49954901     0.80600
N70         N  0.35655459  0.73963050  0.52262307    -0.77700
C71         C  0.34192513  0.75457592  0.56083954     0.83100
N72         N  0.35838710  0.79218063  0.57656254    -0.77600
C73         C  0.38862975  0.81376686  0.55301423     0.83200
N74         N  0.40196731  0.79762886  0.51496696    -0.79300
C75         C  0.52241805  0.79684772  0.77808913     0.80600
N76         N  0.55830181  0.81468573  0.79466983    -0.77700
C77         C  0.57322212  0.85251732  0.77960976     0.83100
N78         N  0.55170579  0.87274872  0.74820943    -0.77600
C79         C  0.51675544  0.85468780  0.73056199     0.83200
N80         N  0.50190494  0.81705633  0.74580378    -0.79300
C81         C  0.60995069  0.86570862  0.47771216     0.80600
N82         N  0.57248586  0.88000761  0.49392389    -0.77700
C83         C  0.55799917  0.86635962  0.53269961     0.83100
N84         N  0.58167699  0.83829937  0.55586880    -0.77600
C85         C  0.61935768  0.82357160  0.53966670     0.83200
N86         N  0.63287692  0.83757142  0.50081104    -0.79300
C87         C  0.36446124  0.07978178  0.45188663     0.80600
N88         N  0.38074324  0.06088973  0.48730468    -0.77700
C89         C  0.36053759  0.02704667  0.50527603     0.83100
N90         N  0.32473466  0.01124241  0.48698275    -0.77600
C91         C  0.30772521  0.02989213  0.45189503     0.83200
N92         N  0.32808375  0.06401313  0.43435380    -0.79300
C93         C  0.25462049  0.01093526  0.75291136     0.80600
N94         N  0.29304383  0.99646923  0.73924607    -0.77700
C95         C  0.31180412  0.01271293  0.70351171     0.83100
N96         N  0.29183953  0.04379951  0.68101544    -0.77600
C97         C  0.25356072  0.05913416  0.69470173     0.83200
N98         N  0.23524067  0.04226848  0.73041047    -0.79300
O99         O  0.48320063  0.91875460  0.71337808    -0.80500
O100        O  0.39763006  0.01622400  0.57083692    -0.65200
O101        O  0.41879967  0.93150869  0.65503984    -1.11800
C102        C  0.51806529  0.88453002  0.54954606     1.06400
O103        O  0.38684103  0.96144918  0.52784854    -0.78400
O104        O  0.41412209  0.88058877  0.53411078    -0.65900
Ni105      Ni  0.42771088  0.94479942  0.71296103     1.34900
C106        C  0.40798176  0.85512566  0.56501163     0.85200
O107        O  0.36466332  0.00209251  0.65010654    -0.78900
O108        O  0.37262333  0.97115599  0.71492806    -0.89200
C109        C  0.38272718  0.00080038  0.53638665     0.84700
O110        O  0.45412438  0.99918547  0.70699052    -0.67400
O111        O  0.49587710  0.90633114  0.52320980    -0.86700
C112        C  0.46344200  0.02350009  0.67589943     0.85600
C113        C  0.35230649  0.99459667  0.68854906     1.07100
H114        H  0.47742655  0.96627752  0.58326240     0.38900
O115        O  0.45248174  0.94814653  0.58376336    -1.09300
O116        O  0.42220204  0.86209467  0.60246278    -0.66000
Ni117      Ni  0.46317473  0.90405623  0.62354010     1.26300
O118        O  0.45118398  0.01624468  0.63773539    -0.66200
O119        O  0.50798028  0.87889584  0.58900687    -0.78500
C120        C  0.49024830  0.88028088  0.70265567     0.84900
O121        O  0.47532194  0.86483799  0.66832175    -0.65700
Ni122      Ni  0.44152633  0.93412474  0.52651493     1.27400
Ni123      Ni  0.40886283  0.97622128  0.61561479     1.26100
H124        H  0.39391398  0.91334252  0.65452046     0.39500
C125        C  0.04728694  0.13560442  0.05712930     0.80600
N126        N  0.02793721  0.15205222  0.02225890    -0.77700
C127        C  0.99395271  0.13263583  0.00380601     0.83100
N128        N  0.97878771  0.09551794  0.02122622    -0.77600
C129        C  0.99784171  0.07865428  0.05665828     0.83200
N130        N  0.03227089  0.09854015  0.07390079    -0.79300
C131        C  0.12473687  0.81252258  0.19992593     0.80600
N132        N  0.09255774  0.83140854  0.17785606    -0.77700
C133        C  0.07372315  0.86739361  0.19334376     0.83100
N134        N  0.08806677  0.88524036  0.23015385    -0.77600
C135        C  0.12003521  0.86675253  0.25260312     0.83200
N136        N  0.13817530  0.83052901  0.23709785    -0.79300
C137        C  0.86219348  0.06365316  0.27222312     0.80600
N138        N  0.87863075  0.04370167  0.23669462    -0.77700
C139        C  0.85862998  0.00817277  0.22113053     0.83100
N140        N  0.82352259  0.99289695  0.24159647    -0.77600
C141        C  0.80743136  0.01200325  0.27687769     0.83200
N142        N  0.82697469  0.04737793  0.29189330    -0.79300
C143        C  0.83192154  0.74053224  0.19007811     0.80600
N144        N  0.84609680  0.77778440  0.17334656    -0.77700
C145        C  0.88227640  0.79637038  0.18789647     0.83100
N146        N  0.90441172  0.77779793  0.22052624    -0.77600
C147        C  0.89013304  0.74026115  0.23784472     0.83200
N148        N  0.85409549  0.72224238  0.22216516    -0.79300
C149        C  0.75734942  0.06191238  0.03705647     0.80600
N150        N  0.74207012  0.04156567  0.00190772    -0.77700
C151        C  0.75761846  0.00303950  0.98990318     0.83100
N152        N  0.78891752  0.98465075  0.01308394    -0.77600
C153        C  0.80575166  0.00510762  0.04731169     0.83200
N154        N  0.78927888  0.04339391  0.06000224    -0.79300
C155        C  0.00793250  0.80687986  0.96999890     0.80600
N156        N  0.99420744  0.82737316  0.00635579    -0.77700
C157        C  0.01529589  0.86302184  0.01993034     0.83100
N158        N  0.04857012  0.87796179  0.99666269    -0.77600
C159        C  0.06203871  0.85868031  0.96046104     0.83200
N160        N  0.04167446  0.82280512  0.94729505    -0.79300
O161        O  0.86844727  0.86858801  0.17389339    -0.80500
O162        O  0.95094603  0.03243955  0.09600466    -0.65200
O163        O  0.90533832  0.91962838  0.10941444    -1.11800
C164        C  0.04198231  0.89021877  0.16784322     1.06400
O165        O  0.01016955  0.00555025  0.06771559    -0.78400
O166        O  0.02580454  0.92111544  0.06499474    -0.65900
Ni167      Ni  0.84983720  0.90885367  0.13107846     1.34900
C168        C  0.00410627  0.88740318  0.05894341     0.85200
O169        O  0.87489103  0.99835658  0.07684355    -0.78900
O170        O  0.82577821  0.94744981  0.09005862    -0.89200
C171        C  0.98513813  0.03680337  0.07421478     0.84700
O172        O  0.84998274  0.95222878  0.17341743    -0.67400
O173        O  0.05464543  0.92315354  0.14742177    -0.86700
C174        C  0.87237917  0.98481371  0.18229048     0.85600
C175        C  0.83748870  0.98264230  0.07322318     1.07100
H176        H  0.97583563  0.96619579  0.16094443     0.38900
O177        O  0.97462006  0.95413619  0.13248648    -1.09300
O178        O  0.97521787  0.87463065  0.08473822    -0.66000
Ni179      Ni  0.95378148  0.89703138  0.13883095     1.26300
O180        O  0.90387194  0.99717843  0.15936621    -0.66200
O181        O  0.00368264  0.87655910  0.16763095    -0.78500
C182        C  0.89444661  0.83782227  0.16948277     0.84900
O183        O  0.92880130  0.84202661  0.14821261    -0.65700
Ni184      Ni  0.02955662  0.96343031  0.10840620     1.27400
Ni185      Ni  0.92559907  0.97712564  0.10431044     1.26100
H186        H  0.90527904  0.90803209  0.08074802     0.39500
C187        C  0.12842992  0.55529267  0.70291960     0.80600
N188        N  0.14072571  0.53628659  0.73995963    -0.77700
C189        C  0.11996119  0.50141735  0.75552853     0.83100
N190        N  0.08653229  0.48527919  0.73333041    -0.77600
C191        C  0.07309000  0.50422974  0.69682657     0.83200
N192        N  0.09449614  0.53880938  0.68129642    -0.79300
C193        C  0.75853281  0.30701777  0.54180733     0.80600
N194        N  0.78969225  0.32779371  0.56390437    -0.77700
C195        C  0.80647997  0.36488108  0.54847706     0.83100
N196        N  0.79122252  0.38172880  0.51169926    -0.77600
C197        C  0.76034257  0.36132228  0.48924562     0.83200
N198        N  0.74417780  0.32417357  0.50470218    -0.79300
C199        C  0.83326111  0.63567862  0.68760759     0.80600
N200        N  0.84978288  0.64814029  0.72571430    -0.77700
C201        C  0.88271367  0.62661571  0.74356649     0.83100
N202        N  0.89931467  0.59193524  0.72301761    -0.77600
C203        C  0.88253193  0.57890306  0.68502140     0.83200
N204        N  0.84945082  0.60062959  0.66789143    -0.79300
C205        C  0.04958558  0.24629408  0.54466824     0.80600
N206        N  0.03469437  0.28217232  0.56359200    -0.77700
C207        C  0.99681693  0.29919024  0.55201097     0.83100
N208        N  0.97355423  0.28051457  0.52016595    -0.77600
C209        C  0.98845637  0.24427016  0.50086707     0.83200
N210        N  0.02624084  0.22776726  0.51350229    -0.79300
C211        C  0.86570793  0.31360260  0.77549740     0.80600
N212        N  0.88116321  0.33195887  0.73855887    -0.77700
C213        C  0.86173552  0.36770393  0.72290248     0.83100
N214        N  0.82831972  0.38462484  0.74454451    -0.77600
C215        C  0.81309866  0.36725841  0.78093883     0.83200
N216        N  0.83195105  0.33168196  0.79624132    -0.79300
C217        C  0.02055009  0.56569643  0.47068988     0.80600
N218        N  0.05643460  0.54975144  0.45212609    -0.77700
C219        C  0.07596767  0.51482896  0.46789796     0.83100
N220        N  0.05920104  0.49579682  0.50285931    -0.77600
C221        C  0.02342467  0.51065079  0.52233351     0.83200
N222        N  0.00337942  0.54570756  0.50592438    -0.79300
O223        O  0.00932430  0.37133408  0.56704234    -0.80500
O224        O  0.92877720  0.53320529  0.64494703    -0.65200
O225        O  0.97371506  0.42072969  0.63252542    -1.11800
C226        C  0.83769737  0.38923423  0.57342617     1.06400
O227        O  0.86812685  0.50698045  0.67112761    -0.78400
O228        O  0.85217054  0.42300251  0.67471401    -0.65900
Ni229      Ni  0.02894542  0.40984251  0.61102300     1.34900
C230        C  0.87402991  0.38996479  0.68286014     0.85200
O231        O  0.00435451  0.49876123  0.66566532    -0.78900
O232        O  0.05287737  0.44703851  0.65350646    -0.89200
C233        C  0.89419265  0.53768863  0.66592637     0.84700
O234        O  0.03083362  0.45430296  0.56983589    -0.67400
O235        O  0.82495436  0.42335628  0.59168703    -0.86700
C236        C  0.00855753  0.48670920  0.56051655     0.85600
C237        C  0.04129519  0.48225838  0.67041709     1.07100
H238        H  0.90454868  0.46603167  0.57960419     0.38900
O239        O  0.90493931  0.45464712  0.60823707    -1.09300
O240        O  0.90371586  0.37646597  0.65833072    -0.66000
Ni241      Ni  0.92548318  0.39733371  0.60352370     1.26300
O242        O  0.97616418  0.49826794  0.58246202    -0.66200
O243        O  0.87580255  0.37553400  0.57526063    -0.78500
C244        C  0.98437738  0.33968711  0.57198874     0.84900
O245        O  0.95088994  0.34258492  0.59486838    -0.65700
Ni246      Ni  0.84948173  0.46437337  0.63056615     1.27400
Ni247      Ni  0.95372505  0.47794392  0.63715308     1.26100
H248        H  0.97381162  0.40947973  0.66134707     0.39500
C249        C  0.98850506  0.70283993  0.91259482    -0.27800
C250        C  0.94741499  0.70929764  0.89601027     0.05800
C251        C  0.92361644  0.74434925  0.91163695     0.25500
C252        C  0.94218566  0.77401358  0.93963373    -0.12300
C253        C  0.98481922  0.76980117  0.95203248    -0.26200
C254        C  0.00734696  0.73311603  0.93954123     0.36300
C255        C  0.93175083  0.68258906  0.85936791     0.05800
F256        F  0.88378908  0.75231028  0.89707411    -0.20000
H257        H  0.92437613  0.80220787  0.94866312     0.15700
F258        F  0.04841060  0.72762439  0.95171858    -0.23700
H259        H  0.00703047  0.67534412  0.90294255     0.17500
C260        C  0.95924616  0.67177272  0.82493550     0.25500
C261        C  0.94356722  0.65097938  0.78852508    -0.12200
C262        C  0.90008736  0.64170953  0.78485399    -0.26300
C263        C  0.87273217  0.65114307  0.81943190     0.36400
C264        C  0.88858347  0.67057649  0.85654577    -0.27900
F265        F  0.00078460  0.68388741  0.82487589    -0.20000
H266        H  0.96502863  0.64449343  0.76200214     0.15700
F267        F  0.83049159  0.64203420  0.81705773    -0.23700
H268        H  0.86673870  0.67713792  0.88268528     0.17500
C269        C  0.91925922  0.65652468  0.32058403    -0.27800
C270        C  0.94473195  0.67944357  0.34929544     0.05800
C271        C  0.95485343  0.72224153  0.33949911     0.25500
C272        C  0.93837476  0.74174757  0.30256478    -0.12300
C273        C  0.91161605  0.71900260  0.27464171    -0.26200
C274        C  0.90295905  0.67572716  0.28391243     0.36300
C275        C  0.96240392  0.65702189  0.38746867     0.05800
F276        F  0.97966765  0.74558848  0.36617171    -0.20000
H277        H  0.94564254  0.77495946  0.29646648     0.15700
F278        F  0.87891016  0.65139101  0.25738138    -0.23700
H279        H  0.91234516  0.62314408  0.32621378     0.17500
C280        C  0.93672649  0.62977840  0.41287631     0.25500
C281        C  0.95518866  0.60258878  0.44325218    -0.12200
C282        C  0.99951406  0.60196629  0.44875349    -0.26300
C283        C  0.02460871  0.63189594  0.42608396     0.36400
C284        C  0.00623546  0.65889234  0.39578437    -0.27900
F285        F  0.89393404  0.62810235  0.40703811    -0.20000
H286        H  0.93514907  0.57998249  0.46020313     0.15700
F287        F  0.06749691  0.63340121  0.43143856    -0.23700
H288        H  0.02685818  0.67932902  0.37687295     0.17500
C289        C  0.87485491  0.16059414  0.34227323    -0.27800
C290        C  0.91829796  0.15879530  0.35221783     0.05800
C291        C  0.94463890  0.13044400  0.32892503     0.25500
C292        C  0.92696529  0.10186034  0.29926785    -0.12300
C293        C  0.88282977  0.10105035  0.29252686    -0.26200
C294        C  0.85726059  0.13212928  0.31276054     0.36300
C295        C  0.93454826  0.18182565  0.39058965     0.05800
F296        F  0.98715088  0.12886818  0.33652441    -0.20000
H297        H  0.94729209  0.07831643  0.28412105     0.15700
F298        F  0.81457904  0.13319702  0.30600796    -0.23700
H299        H  0.85385658  0.18197889  0.35958673     0.17500
C300        C  0.92591770  0.22531163  0.39835931     0.25500
C301        C  0.94156312  0.24550483  0.43537477    -0.12200
C302        C  0.96580030  0.22260172  0.46521921    -0.26300
C303        C  0.97227914  0.17863712  0.45827693     0.36400
C304        C  0.95698045  0.15878442  0.42149944    -0.27900
F305        F  0.90367788  0.24857094  0.36955970    -0.20000
H306        H  0.93611915  0.27930114  0.43984880     0.15700
F307        F  0.99357078  0.15451297  0.48713118    -0.23700
H308        H  0.96244347  0.12493833  0.41733924     0.17500
C309        C  0.87980475  0.21865772  0.84860233    -0.27800
C310        C  0.92420609  0.21757141  0.85338107     0.05800
C311        C  0.94952010  0.24288614  0.82569769     0.25500
C312        C  0.93051580  0.27188924  0.79736491    -0.12300
C313        C  0.88600929  0.27594454  0.79592000    -0.26200
C314        C  0.86087007  0.24737481  0.82025440     0.36300
C315        C  0.94310075  0.19416897  0.89041470     0.05800
F316        F  0.99267925  0.24085993  0.82730886    -0.20000
H317        H  0.95063045  0.29305439  0.77870615     0.15700
F318        F  0.81767996  0.24866986  0.81825669    -0.23700
H319        H  0.85949763  0.19919976  0.86887183     0.17500
C320        C  0.97125159  0.21533417  0.91809663     0.25500
C321        C  0.98702314  0.19492593  0.95435862    -0.12200
C322        C  0.97498224  0.15288113  0.96489868    -0.26300
C323        C  0.94620670  0.13168520  0.93760003     0.36400
C324        C  0.93045969  0.15223173  0.90083094    -0.27900
F325        F  0.98210855  0.25671315  0.91134086    -0.20000
H326        H  0.00841134  0.21278651  0.97470386     0.15700
F327        F  0.93352194  0.09116412  0.94604340    -0.23700
H328        H  0.90831326  0.13534974  0.88043081     0.17500
C329        C  0.14783787  0.22099945  0.60993498    -0.27800
C330        C  0.15712920  0.17969701  0.59552160     0.05800
C331        C  0.13444705  0.16264554  0.56095780     0.25500
C332        C  0.10094161  0.18554947  0.54307197    -0.12300
C333        C  0.08941260  0.22580995  0.55940632    -0.26200
C334        C  0.11452744  0.24415353  0.59190058     0.36300
C335        C  0.18475287  0.15197923  0.62125208     0.05800
F336        F  0.14233252  0.12244752  0.54687532    -0.20000
H337        H  0.08269639  0.17063184  0.51782646     0.15700
F338        F  0.10595126  0.28356239  0.60769829    -0.23700
H339        H  0.16520226  0.23450639  0.63659364     0.17500
C340        C  0.22133890  0.13269774  0.60397584     0.25500
C341        C  0.24437960  0.10337394  0.62837279    -0.12200
C342        C  0.23081828  0.09241418  0.67005023    -0.26300
C343        C  0.19438261  0.11263364  0.68726265     0.36400
C344        C  0.17194819  0.14218998  0.66309158    -0.27900
F345        F  0.23446316  0.14195548  0.56353734    -0.20000
H346        H  0.27220623  0.08849477  0.61419123     0.15700
F347        F  0.17975481  0.10365972  0.72724115    -0.23700
H348        H  0.14350324  0.15654860  0.67663562     0.17500
C349        C  0.14058559  0.94114365  0.91834376    -0.27800
C350        C  0.15613612  0.92133597  0.88132283     0.05800
C351        C  0.14320482  0.87945311  0.87181759     0.25500
C352        C  0.11337697  0.85860414  0.89810437    -0.12300
C353        C  0.09641749  0.87904599  0.93452631    -0.26200
C354        C  0.11130017  0.92041900  0.94484071     0.36300
C355        C  0.18313607  0.94590755  0.85124367     0.05800
F356        F  0.15785047  0.85955706  0.83603517    -0.20000
H357        H  0.10292303  0.82684427  0.88942064     0.15700
F358        F  0.09663702  0.94192695  0.97966868    -0.23700
H359        H  0.15052166  0.97329388  0.92626382     0.17500
C360        C  0.16768178  0.98369141  0.83303873     0.25500
C361        C  0.19182099  0.00546595  0.80237760    -0.12200
C362        C  0.23205350  0.99026192  0.78942308    -0.26300
C363        C  0.24848569  0.95362156  0.80968254     0.36400
C364        C  0.22392200  0.93150909  0.83995794    -0.27900
F365        F  0.12836193  0.99854155  0.84355077    -0.20000
H366        H  0.17831961  0.03370544  0.78797476     0.12900
F367        F  0.28773350  0.93834313  0.79967188    -0.23700
H368        H  0.23658420  0.90287240  0.85439494     0.17500
C369        C  0.19181170  0.89293197  0.34679140    -0.27800
C370        C  0.18230604  0.93614474  0.35391805     0.05800
C371        C  0.14862836  0.95463700  0.33098326     0.25500
C372        C  0.12714999  0.93124213  0.29962521    -0.12300
C373        C  0.13849262  0.88879029  0.29049843    -0.26200
C374        C  0.16999779  0.86932726  0.31580827     0.36300
C375        C  0.21012619  0.96247927  0.38204349     0.05800
F376        F  0.13700878  0.99568947  0.33821200    -0.20000
H377        H  0.10261630  0.94708257  0.28139984     0.15700
F378        F  0.18084151  0.82786255  0.30992000    -0.23700
H379        H  0.21761085  0.87778368  0.36381026     0.17500
C380        C  0.22438432  0.94726613  0.42179941     0.25500
C381        C  0.25459272  0.97031917  0.44516679    -0.12200
C382        C  0.27131956  0.00909507  0.42959580    -0.26300
C383        C  0.25517143  0.02539200  0.39094308     0.36400
C384        C  0.22531643  0.00210954  0.36744262    -0.27900
F385        F  0.20956403  0.90985148  0.43791483    -0.20000
H386        H  0.26575224  0.95698301  0.47500298     0.15700
F387        F  0.26911474  0.06310721  0.37481064    -0.23700
H388        H  0.21539389  0.01444388  0.33673632     0.17500
C389        C  0.66215320  0.74457246  0.62184849    -0.27800
C390        C  0.70457294  0.74024081  0.60770846     0.05800
C391        C  0.71852202  0.76383463  0.57215850     0.25500
C392        C  0.69052539  0.79061480  0.55079262    -0.12300
C393        C  0.64779826  0.79485100  0.56423760    -0.26200
C394        C  0.63384399  0.77160472  0.60030944     0.36300
C395        C  0.73456150  0.71105559  0.62937652     0.05800
F396        F  0.75963413  0.76162132  0.55847529    -0.20000
H397        H  0.70275009  0.80837300  0.52363860     0.15700
F398        F  0.59287871  0.77417677  0.61424047    -0.23700
H399        H  0.65080588  0.72646316  0.64915094     0.17500
C400        C  0.74331820  0.71522151  0.67321227     0.25500
C401        C  0.77491121  0.69016166  0.69208462    -0.12200
C402        C  0.79817091  0.66030196  0.66768538    -0.26300
C403        C  0.78832862  0.65541966  0.62395356     0.36400
C404        C  0.75690373  0.68057261  0.60521209    -0.27900
F405        F  0.72270855  0.74482309  0.69733052    -0.20000
H406        H  0.78152878  0.69459210  0.72578200     0.15700
F407        F  0.80997696  0.62753975  0.59868914    -0.23700
H408        H  0.75047360  0.67678925  0.57137937     0.17500
C409        C  0.63807771  0.94362978  0.38896586    -0.27800
C410        C  0.67602413  0.92568417  0.37333583     0.05800
C411        C  0.68876525  0.88552584  0.38820262     0.25500
C412        C  0.66534018  0.86498210  0.42017208    -0.12300
C413        C  0.62877875  0.88402679  0.43808046    -0.26200
C414        C  0.61423122  0.92283188  0.42074319     0.36300
C415        C  0.70493398  0.95066730  0.34552296     0.05800
F416        F  0.72567966  0.86763258  0.37419799    -0.20000
H417        H  0.67714547  0.83496188  0.43233924     0.15700
F418        F  0.57855354  0.94206463  0.43607213    -0.23700
H419        H  0.62776082  0.97450977  0.37758457     0.17500
C420        C  0.71948547  0.93418466  0.30633162     0.25500
C421        C  0.75173034  0.95513865  0.28358403    -0.12200
C422        C  0.77031770  0.99282500  0.29958051    -0.26300
C423        C  0.75421762  0.01022949  0.33808007     0.36400
C424        C  0.72172523  0.98929828  0.36060422    -0.27900
F425        F  0.70316392  0.89728846  0.29057529    -0.20000
H426        H  0.76287843  0.94104213  0.25390396     0.15700
F427        F  0.77068695  0.04653952  0.35497053    -0.23700
H428        H  0.71099109  0.00226252  0.39097628     0.17500
C429        C  0.63365782  0.93913698  0.83715455    -0.27800
C430        C  0.66737494  0.91623672  0.85535346     0.05800
C431        C  0.67201619  0.87270383  0.84515543     0.25500
C432        C  0.64199046  0.85220872  0.81932517    -0.12300
C433        C  0.60761159  0.87498002  0.80237109    -0.26200
C434        C  0.60434740  0.91897678  0.81055389     0.36300
C435        C  0.69469663  0.93716199  0.88787174     0.05800
F436        F  0.70519537  0.84985899  0.86061403    -0.20000
H437        H  0.64524146  0.81840035  0.81301559     0.15700
F438        F  0.57110283  0.94200461  0.79544858    -0.23700
H439        H  0.62867607  0.97236086  0.84515320     0.17500
C440        C  0.70980977  0.97911446  0.88202526     0.25500
C441        C  0.73064819  0.00032350  0.91527201    -0.12200
C442        C  0.73785720  0.97972168  0.95431508    -0.26300
C443        C  0.72418500  0.93740508  0.95978264     0.36400
C444        C  0.70244333  0.91653810  0.92697563    -0.27900
F445        F  0.70429268  0.99968610  0.84427306    -0.20000
H446        H  0.74123736  0.03288862  0.91055482     0.15700
F447        F  0.72959972  0.91710775  0.99771563    -0.23700
H448        H  0.69017452  0.88477050  0.93284767     0.17500
C449        C  0.26397013  0.66434675  0.58750004    -0.27800
C450        C  0.24270814  0.67949672  0.62394207     0.05800
C451        C  0.25443949  0.71976540  0.64035523     0.25500
C452        C  0.28670192  0.74420847  0.62029146    -0.12300
C453        C  0.30809776  0.72891258  0.58358345    -0.26200
C454        C  0.29602247  0.68825572  0.56762984     0.36300
C455        C  0.21012984  0.65166396  0.64525823     0.05800
F456        F  0.23415343  0.73579903  0.67530955    -0.20000
H457        H  0.29470791  0.77517196  0.63335047     0.15700
F458        F  0.31535365  0.67063159  0.53289372    -0.23700
H459        H  0.25632047  0.63315619  0.57468790     0.17500
C460        C  0.17743383  0.63194483  0.62155338     0.25500
C461        C  0.15004226  0.60208330  0.64085456    -0.12200
C462        C  0.15478775  0.59058027  0.68411155    -0.26300
C463        C  0.18687830  0.61126797  0.70805235     0.36400
C464        C  0.21394284  0.64143960  0.68879334    -0.27900
F465        F  0.17226218  0.64112499  0.57944976    -0.20000
H466        H  0.12590568  0.58696250  0.62137242     0.15700
F467        F  0.19291220  0.60190713  0.74997477    -0.23700
H468        H  0.23911190  0.65565318  0.70763987     0.17500
C469        C  0.63532905  0.14182054  0.60625949    -0.27800
C470        C  0.64130766  0.18551654  0.61500085     0.05800
C471        C  0.61086289  0.20674635  0.64027255     0.25500
C472        C  0.57638193  0.18457868  0.65778517    -0.12300
C473        C  0.57102601  0.14054171  0.65082176    -0.26200
C474        C  0.60058083  0.11933974  0.62420676     0.36300
C475        C  0.67789536  0.20997197  0.59671889     0.05800
F476        F  0.61416647  0.24928310  0.64773284    -0.20000
H477        H  0.55394635  0.20206446  0.67757559     0.15700
F478        F  0.59714517  0.07677500  0.61724744    -0.23700
H479        H  0.65816097  0.12493310  0.58641872     0.17500
C480        C  0.70379329  0.23555278  0.62310716     0.25500
C481        C  0.73242450  0.26496168  0.60509350    -0.12200
C482        C  0.73568758  0.26963326  0.56044896    -0.26300
C483        C  0.71242070  0.24139516  0.53417212     0.36400
C484        C  0.68394006  0.21186541  0.55223777    -0.27900
F485        F  0.70004430  0.23340216  0.66637789    -0.20000
H486        H  0.75010092  0.28585003  0.62618459     0.15700
F487        F  0.71594884  0.24333477  0.49088857    -0.23700
H488        H  0.66473597  0.19220122  0.53131184     0.17500
C489        C  0.39424536  0.16742556  0.37410894    -0.27800
C490        C  0.43888512  0.16532057  0.37453137     0.05800
C491        C  0.45900833  0.13775288  0.40338275     0.25500
C492        C  0.43452074  0.11171142  0.43039217    -0.12300
C493        C  0.38969249  0.11218903  0.42837509    -0.26200
C494        C  0.36978285  0.14094637  0.40044253     0.36300
C495        C  0.46324112  0.18980856  0.34222834     0.05800
F496        F  0.50217148  0.13540242  0.40479123    -0.20000
H497        H  0.45071036  0.08971411  0.45141586     0.15700
F498        F  0.32667810  0.14288705  0.39783955    -0.23700
H499        H  0.37824254  0.18844302  0.35193790     0.17500
C500        C  0.48733859  0.16863937  0.31069730     0.25500
C501        C  0.50260210  0.19097041  0.27502936    -0.12200
C502        C  0.49404686  0.23472975  0.27017811    -0.26300
C503        C  0.47270264  0.25638499  0.30358053     0.36400
C504        C  0.45725882  0.23394302  0.33903660    -0.27900
F505        F  0.49322977  0.12582363  0.31265078    -0.20000
H506        H  0.51917880  0.17340236  0.25014804     0.15700
F507        F  0.46539526  0.29895505  0.30151968    -0.23700
H508        H  0.43901639  0.25074200  0.36329528     0.17500
C509        C  0.68541775  0.15903969  0.03894191    -0.27800
C510        C  0.67428780  0.16114091  0.08243416     0.05800
C511        C  0.69553063  0.13453224  0.11158314     0.25500
C512        C  0.72555020  0.10467139  0.09704384    -0.12300
C513        C  0.73428014  0.10019168  0.05309083    -0.26200
C514        C  0.71489930  0.12869510  0.02427099     0.36300
C515        C  0.63706767  0.18686978  0.09669746     0.05800
F516        F  0.68572233  0.13612154  0.15395320    -0.20000
H517        H  0.73970692  0.08306659  0.11989494     0.15700
F518        F  0.72314484  0.12603810  0.98163514    -0.23700
H519        H  0.66945142  0.17924803  0.01601818     0.17500
C520        C  0.63750338  0.23176560  0.09633341     0.25500
C521        C  0.60313906  0.25481708  0.11400889    -0.12200
C522        C  0.56799061  0.23329230  0.13201177    -0.26300
C523        C  0.56647748  0.18848353  0.12930682     0.36400
C524        C  0.60070401  0.16567534  0.11205222    -0.27900
F525        F  0.67214886  0.25314782  0.08137066    -0.20000
H526        H  0.60526928  0.28921573  0.11617312     0.15700
F527        F  0.53247349  0.16656558  0.14508556    -0.23700
H528        H  0.59933971  0.13115735  0.11170550     0.17500
C529        C  0.18456775  0.22802120  0.18448307    -0.27800
C530        C  0.18546132  0.22678356  0.13957163     0.05800
C531        C  0.21534846  0.25226575  0.11748738     0.25500
C532        C  0.24246041  0.27965555  0.13999621    -0.12300
C533        C  0.24001923  0.28246513  0.18484887    -0.26200
C534        C  0.21149763  0.25545453  0.20697845     0.36300
C535        C  0.15265792  0.20184082  0.11625413     0.05800
F536        F  0.21784864  0.25122239  0.07409821    -0.20000
H537        H  0.26420843  0.29988595  0.12214122     0.15700
F538        F  0.20908553  0.25588737  0.25038321    -0.23700
H539        H  0.16171482  0.20893401  0.20222002     0.17500
C540        C  0.14325254  0.15933957  0.12722468     0.25500
C541        C  0.10934877  0.13785389  0.10765848    -0.12200
C542        C  0.08424334  0.15817368  0.07661394    -0.26300
C543        C  0.09458107  0.20046907  0.06497554     0.36400
C544        C  0.12822235  0.22186818  0.08473571    -0.27900
F545        F  0.16693522  0.13853723  0.15676009    -0.20000
H546        H  0.10270596  0.10526383  0.11698664     0.15700
F547        F  0.07152372  0.22198408  0.03547852    -0.23700
H548        H  0.13432392  0.25481192  0.07628041     0.17500
C549        C  0.16399639  0.43777792  0.43606235    -0.27800
C550        C  0.17619789  0.45384600  0.39597223     0.05800
C551        C  0.15763162  0.49174140  0.38114485     0.25500
C552        C  0.12645137  0.51238269  0.40557628    -0.12300
C553        C  0.11282682  0.49548213  0.44506521    -0.26200
C554        C  0.13278970  0.45830425  0.46055686     0.36300
C555        C  0.20471079  0.42870196  0.36783910     0.05800
F556        F  0.16758057  0.50732836  0.34179314    -0.20000
H557        H  0.11180283  0.54075294  0.39261759     0.15700
F558        F  0.12145551  0.44078187  0.49868896    -0.23700
H559        H  0.17797857  0.40858773  0.44794542     0.17500
C560        C  0.24055203  0.44727681  0.34814701     0.25500
C561        C  0.26334732  0.42476810  0.31689067    -0.12200
C562        C  0.25068035  0.38343288  0.30465446    -0.26300
C563        C  0.21669667  0.36382093  0.32687758     0.36400
C564        C  0.19401030  0.38636633  0.35809133    -0.27900
F565        F  0.25284010  0.48752182  0.35839944    -0.20000
H566        H  0.28973455  0.44056050  0.30093279     0.15700
F567        F  0.20445247  0.32332439  0.31772858    -0.23700
H568        H  0.16673601  0.37134429  0.37331691     0.17500
C569        C  0.44931400  0.63898572  0.90184395    -0.27800
C570        C  0.43730279  0.68091568  0.89247085     0.05800
C571        C  0.40548811  0.70051458  0.91759008     0.25500
C572        C  0.38752790  0.67908686  0.95256237    -0.12300
C573        C  0.40095242  0.63777623  0.96334625    -0.26200
C574        C  0.43140963  0.61747809  0.93675746     0.36300
C575        C  0.45973287  0.70508420  0.85833600     0.05800
F576        F  0.39339072  0.74128096  0.90980013    -0.20000
H577        H  0.36418044  0.69558466  0.97211982     0.15700
F578        F  0.44464513  0.57709860  0.94464228    -0.23700
H579        H  0.47318565  0.62305584  0.88241812     0.17500
C580        C  0.50446438  0.70840762  0.85806238     0.25500
C581        C  0.52497552  0.73620520  0.82967682    -0.12200
C582        C  0.50138326  0.76114669  0.80103674    -0.26300
C583        C  0.45676463  0.75556191  0.79944306     0.36400
C584        C  0.43635049  0.72776549  0.82785072    -0.27900
F585        F  0.52818062  0.68713642  0.88723023    -0.20000
H586        H  0.55926463  0.73970561  0.83154800     0.15700
F587        F  0.43227557  0.77911546  0.77279114    -0.23700
H588        H  0.40193265  0.72515679  0.82713155     0.17500
C589        C  0.23213727  0.66319773  0.08920871    -0.27800
C590        C  0.23952844  0.68643128  0.12704640     0.05800
C591        C  0.28018945  0.68351221  0.14609717     0.25500
C592        C  0.31243923  0.65876132  0.12722392    -0.12300
C593        C  0.30526630  0.63730793  0.08859224    -0.26200
C594        C  0.26481785  0.63959705  0.06975009     0.36300
C595        C  0.20579638  0.71509510  0.14533094     0.05800
F596        F  0.28975944  0.70656860  0.18156029    -0.20000
H597        H  0.34374950  0.65817987  0.14160654     0.15700
F598        F  0.25717336  0.61952066  0.03202804    -0.23700
H599        H  0.20116762  0.66381207  0.07417855     0.17500
C600        C  0.18117806  0.74179043  0.11883607     0.25500
C601        C  0.15286743  0.77152125  0.13675808    -0.12200
C602        C  0.14891293  0.77601992  0.18137121    -0.26300
C603        C  0.17179252  0.74792659  0.20778056     0.36400
C604        C  0.19940338  0.71762263  0.18988641    -0.27900
F605        F  0.18626993  0.74124252  0.07565944    -0.20000
H606        H  0.13583398  0.79273646  0.11559992     0.15700
F607        F  0.16800554  0.75005329  0.25104411    -0.23700
H608        H  0.21649942  0.69657792  0.21113809     0.17500
C609        C  0.73204164  0.71778372  0.12577200    -0.27800
C610        C  0.72531856  0.67453335  0.13490323     0.05800
C611        C  0.75206793  0.65387730  0.16405963     0.25500
C612        C  0.78576675  0.67597640  0.18283300    -0.12300
C613        C  0.79365332  0.71899222  0.17267721    -0.26200
C614        C  0.76573479  0.74001325  0.14455691     0.36300
C615        C  0.69380607  0.64988046  0.11024716     0.05800
F616        F  0.74726296  0.61164927  0.17232655    -0.20000
H617        H  0.80663717  0.65877894  0.20415049     0.15700
F618        F  0.77116432  0.78178195  0.13459908    -0.23700
H619        H  0.71166174  0.73407681  0.10325097     0.17500
C620        C  0.66174396  0.62592077  0.13066452     0.25500
C621        C  0.63540207  0.59908437  0.10666273    -0.12200
C622        C  0.64105034  0.59541066  0.06207720    -0.26300
C623        C  0.67211991  0.62095510  0.04166692     0.36400
C624        C  0.69801438  0.64796067  0.06563112    -0.27900
F625        F  0.65642585  0.62798475  0.17378578    -0.20000
H626        H  0.61168099  0.58001217  0.12322003     0.15700
F627        F  0.67816052  0.61944620  0.99861568    -0.23700
H628        H  0.72260010  0.66627364  0.04944186     0.17500
C629        C  0.64651291  0.43610417  0.89450410    -0.27800
C630        C  0.68326597  0.45559161  0.87790146     0.05800
C631        C  0.69296195  0.49772330  0.88970053     0.25500
C632        C  0.66809216  0.51863688  0.92034731    -0.12300
C633        C  0.63301323  0.49804243  0.93953328    -0.26200
C634        C  0.62130438  0.45711245  0.92484111     0.36300
C635        C  0.71335361  0.43083700  0.85128620     0.05800
F636        F  0.72817380  0.51758240  0.87387598    -0.20000
H637        H  0.67750864  0.55032071  0.93041748     0.15700
F638        F  0.58717009  0.43610848  0.94149649    -0.23700
H639        H  0.63821443  0.40390672  0.88506399     0.17500
C640        C  0.73103994  0.39279019  0.86681766     0.25500
C641        C  0.76277734  0.37173868  0.84344479    -0.12200
C642        C  0.77735305  0.38816874  0.80412894    -0.26300
C643        C  0.75831143  0.42566761  0.78805284     0.36400
C644        C  0.72677599  0.44665170  0.81157498    -0.27900
F645        F  0.71905612  0.37707726  0.90555796    -0.20000
H646        H  0.77657751  0.34307314  0.85668881     0.15700
F647        F  0.77046378  0.44284807  0.75000919    -0.23700
H648        H  0.71319924  0.47576816  0.79904694     0.17500
C649        C  0.14602638  0.41381982  0.83541549    -0.27800
C650        C  0.17771074  0.43350113  0.86013737     0.05800
C651        C  0.18708570  0.47679806  0.85290606     0.25500
C652        C  0.16667106  0.49910448  0.82021333    -0.12300
C653        C  0.13662467  0.47884586  0.79382237    -0.26200
C654        C  0.12558640  0.43607312  0.80265952     0.36300
C655        C  0.20481793  0.40746693  0.88883966     0.05800
F656        F  0.21829382  0.49678950  0.87519505    -0.20000
H657        H  0.17570695  0.53196255  0.81453527     0.15700
F658        F  0.09695765  0.41473501  0.77823637    -0.23700
H659        H  0.13826550  0.38051708  0.84041366     0.17500
C660        C  0.21526215  0.42108982  0.93039760     0.25500
C661        C  0.24631437  0.39947157  0.95388184    -0.12200
C662        C  0.26723790  0.36360516  0.93664298    -0.26300
C663        C  0.25434857  0.34828783  0.89624648     0.36400
C664        C  0.22362727  0.37012077  0.87277467    -0.27900
F665        F  0.19598246  0.45566547  0.94802768    -0.20000
H666        H  0.25472512  0.41154535  0.98521231     0.15700
F667        F  0.27292490  0.31363397  0.87803785    -0.23700
H668        H  0.21610513  0.35892852  0.84087512     0.17500
C669        C  0.38319499  0.20106850  0.88744089    -0.27800
C670        C  0.42787073  0.20009557  0.88890479     0.05800
C671        C  0.44914169  0.22587673  0.91877824     0.25500
C672        C  0.42604614  0.25375962  0.94505726    -0.12300
C673        C  0.38145774  0.25692942  0.94146666    -0.26200
C674        C  0.36011890  0.22915971  0.91332704     0.36300
C675        C  0.45153640  0.17594917  0.85569364     0.05800
F676        F  0.49229569  0.22517879  0.92147408    -0.20000
H677        H  0.44341990  0.27461188  0.96642907     0.15700
F678        F  0.31707839  0.23023359  0.90946122    -0.23700
H679        H  0.36618567  0.18167246  0.86444141     0.17500
C680        C  0.44120511  0.13331185  0.84668053     0.25500
C681        C  0.45761796  0.11345589  0.81006568    -0.12200
C682        C  0.48473841  0.13567280  0.78174941    -0.26300
C683        C  0.49732725  0.17755602  0.79251983     0.36400
C684        C  0.48070390  0.19735965  0.82907288    -0.27900
F685        F  0.41423186  0.11128741  0.87267546    -0.20000
H686        H  0.44801204  0.08097475  0.80328894     0.15700
F687        F  0.52378767  0.20044347  0.76674870    -0.23700
H688        H  0.48882295  0.23037472  0.83526336     0.17500
C689        C  0.68561674  0.38472411  0.39695697    -0.27800
C690        C  0.69507662  0.42769232  0.38878706     0.05800
C691        C  0.72950722  0.44688462  0.40997179     0.25500
C692        C  0.75211698  0.42429847  0.44086921    -0.12300
C693        C  0.74080864  0.38213609  0.45142353    -0.26200
C694        C  0.70826258  0.36198524  0.42778341     0.36300
C695        C  0.66648047  0.45333242  0.36150483     0.05800
F696        F  0.74053486  0.48792426  0.40159927    -0.20000
H697        H  0.77740139  0.44061232  0.45774537     0.15700
F698        F  0.69702475  0.32086453  0.43535276    -0.23700
H699        H  0.65923750  0.36928418  0.38093324     0.17500
C700        C  0.65443293  0.43932056  0.32059854     0.25500
C701        C  0.62519310  0.46279908  0.29669194    -0.12200
C702        C  0.60719835  0.50057029  0.31313831    -0.26300
C703        C  0.61965466  0.51461639  0.35411247     0.36400
C704        C  0.64897121  0.49118984  0.37781173    -0.27900
F705        F  0.67101608  0.40303478  0.30369373    -0.20000
H706        H  0.61638039  0.45109007  0.26533845     0.15700
F707        F  0.60251810  0.55005154  0.37223346    -0.23700
H708        H  0.65707770  0.50203064  0.40968769     0.17500
C709        C  0.50875465  0.67375156  0.35697785    -0.27800
C710        C  0.46464806  0.67929918  0.35310739     0.05800
C711        C  0.44291269  0.65825663  0.32004328     0.25500
C712        C  0.46438615  0.62908359  0.29383249    -0.12300
C713        C  0.50776575  0.62024089  0.30046555    -0.26200
C714        C  0.53024707  0.64448500  0.33099798     0.36300
C715        C  0.44114163  0.70242662  0.38703989     0.05800
F716        F  0.40046922  0.66428894  0.31461978    -0.20000
H717        H  0.44628762  0.61134095  0.27036680     0.15700
F718        F  0.57252736  0.63834268  0.33745292    -0.23700
H719        H  0.52609518  0.69001464  0.38207110     0.17500
C720        C  0.40980596  0.68114756  0.41126239     0.25500
C721        C  0.39123330  0.70088982  0.44676776    -0.12200
C722        C  0.40366642  0.74214977  0.45918761    -0.26300
C723        C  0.43418109  0.76400780  0.43392776     0.36400
C724        C  0.45285714  0.74405880  0.39840173    -0.27900
F725        F  0.39899936  0.64020295  0.40218620    -0.20000
H726        H  0.36809412  0.68306096  0.46536914     0.15700
F727        F  0.44681053  0.80422827  0.44383394    -0.23700
H728        H  0.47712322  0.76080944  0.38015631     0.17500
loop_ 
_geom_bond_atom_site_label_1 
_geom_bond_atom_site_label_2 
_geom_bond_distance 
_geom_bond_site_symmetry_2 
_ccdc_geom_bond_type 
C1            N2   1.359       .  A
C1            N6   1.363       .  A
C1          C713   1.483       .  S
N2            C3   1.356       .  A
C3            N4   1.355       .  A
C3          C702   1.486       .  S
N4            C5   1.357       .  A
C5            N6   1.359       .  A
C5           C47   1.462       .  S
C7            N8   1.358       .  A
C7           N12   1.359       .  A
C7          C673   1.482       .  S
N8            C9   1.356   1_556  A
C9           N10   1.358   1_554  A
C9           C58   1.459       .  S
N10          C11   1.358       .  A
C11          N12   1.358       .  A
C11         C662   1.489       .  S
C13          N14   1.356       .  A
C13          N18   1.354       .  A
C13         C633   1.481       .  S
N14          C15   1.358   1_556  A
C15          N16   1.360       .  A
C15         C622   1.480       .  S
N16          C17   1.359       .  A
C17          N18   1.356   1_554  A
C17          C51   1.463       .  S
C19          N20   1.357       .  A
C19          N24   1.351       .  A
C19         C573   1.488   1_554  S
N20          C21   1.361       .  A
C21          N22   1.369       .  A
C21         C593   1.476       .  S
N22          C23   1.364       .  A
C23          N24   1.355       .  A
C23          C50   1.472       .  S
C25          N26   1.357       .  A
C25          N30   1.355       .  A
C25         C562   1.483       .  S
N26          C27   1.359       .  A
C27          N28   1.362       .  A
C27         C533   1.482       .  S
N28          C29   1.360       .  A
C29          N30   1.358       .  A
C29          C40   1.466       .  S
C31          N32   1.353       .  A
C31          N36   1.353       .  A
C31         C502   1.485       .  S
N32          C33   1.357       .  A
C33          N34   1.369       .  A
C33          C44   1.478       .  S
N34          C35   1.371       .  A
C35          N36   1.358       .  A
C35         C522   1.484       .  S
O37         Ni43   1.928       .  S
O37          C58   1.271       .  A
O38         Ni61   1.921       .  S
O38          C47   1.272       .  A
O39         Ni43   1.878       .  S
O39         Ni61   1.897       .  S
O39         Ni55   1.905       .  S
O39          H62   0.967       .  S
C40          O57   1.282       .  A
C40          O49   1.279       .  A
O41         Ni60   1.920       .  S
O41          C47   1.270       .  A
O42         Ni60   1.907       .  S
O42          C44   1.268       .  A
Ni43         O46   1.918       .  S
Ni43         O48   1.896       .  S
C44          O54   1.271       .  A
O45         Ni61   1.925       .  S
O45          C51   1.280       .  A
O46          C51   1.280       .  A
O48          C50   1.267       .  A
O49         Ni60   1.915       .  S
C50          O56   1.275       .  A
H52          O53   0.965       .  S
O53         Ni61   1.904       .  S
O53         Ni55   1.894       .  S
O53         Ni60   1.880       .  S
O54         Ni55   1.944       .  S
Ni55         O59   1.911       .  S
Ni55         O57   1.932       .  S
O56         Ni61   1.949       .  S
C58          O59   1.270       .  A
C63          N64   1.352       .  A
C63          N68   1.350       .  A
C63         C682   1.486       .  S
N64          C65   1.359       .  A
C65          N66   1.371       .  A
C65         C112   1.481       .  S
N66          C67   1.373       .  A
C67          N68   1.358       .  A
C67         C473   1.490       .  S
C69          N70   1.351       .  A
C69          N74   1.347       .  A
C69         C722   1.485       .  S
N70          C71   1.359       .  A
C71          N72   1.378       .  A
C71         C453   1.506       .  S
N72          C73   1.374       .  A
C73          N74   1.355       .  A
C73         C106   1.480       .  S
C75          N76   1.361       .  A
C75          N80   1.359       .  A
C75         C582   1.482       .  S
N76          C77   1.358       .  A
C77          N78   1.354       .  A
C77         C433   1.474       .  S
N78          C79   1.354       .  A
C79          N80   1.354       .  A
C79         C120   1.453       .  S
C81          N82   1.354       .  A
C81          N86   1.352       .  A
C81         C413   1.484       .  S
N82          C83   1.360       .  A
C83          N84   1.365       .  A
C83         C102   1.472       .  S
N84          C85   1.364       .  A
C85          N86   1.356       .  A
C85         C393   1.487       .  S
C87          N88   1.359       .  A
C87          N92   1.361       .  A
C87         C493   1.480       .  S
N88          C89   1.356       .  A
C89          N90   1.356       .  A
C89         C109   1.456       .  S
N90          C91   1.356       .  A
C91          N92   1.359       .  A
C91         C382   1.491       .  S
C93          N94   1.355   1_545  A
C93          N98   1.357       .  A
C93         C362   1.487   1_545  S
N94          C95   1.358   1_565  A
C95          N96   1.359       .  A
C95         C113   1.467   1_545  S
N96          C97   1.361       .  A
C97          N98   1.359       .  A
C97         C342   1.485       .  S
O99        Ni105   1.925       .  S
O99         C120   1.272       .  A
O100       Ni123   1.915   1_545  S
O100        C109   1.271       .  A
O101       Ni105   1.879       .  S
O101       Ni123   1.896       .  S
O101       Ni117   1.906       .  S
O101        H124   0.966       .  S
C102        O119   1.283       .  A
C102        O111   1.281       .  A
O103       Ni122   1.920       .  S
O103        C109   1.269   1_565  A
O104       Ni122   1.899       .  S
O104        C106   1.267       .  A
Ni105       O108   1.919       .  S
Ni105       O110   1.904       .  S
C106        O116   1.273       .  A
O107       Ni123   1.930   1_545  S
O107        C113   1.281   1_545  A
O108        C113   1.280       .  A
O110        C112   1.268   1_565  A
O111       Ni122   1.919       .  S
C112        O118   1.275       .  A
H114        O115   0.967       .  S
O115       Ni123   1.904       .  S
O115       Ni117   1.893       .  S
O115       Ni122   1.875       .  S
O116       Ni117   1.955       .  S
Ni117       O121   1.905       .  S
Ni117       O119   1.935       .  S
O118       Ni123   1.954   1_545  S
C120        O121   1.268       .  A
C125        N126   1.354       .  A
C125        N130   1.358       .  A
C125        C542   1.490       .  S
N126        C127   1.358   1_455  A
C127        N128   1.369       .  A
C127        C322   1.500   1_554  S
N128        C129   1.369       .  A
C129        N130   1.360   1_655  A
C129        C171   1.476       .  S
C131        N132   1.364       .  A
C131        N136   1.360       .  A
C131        C602   1.490       .  S
N132        C133   1.362       .  A
C133        N134   1.357       .  A
C133        C164   1.468       .  S
N134        C135   1.359       .  A
C135        N136   1.359       .  A
C135        C373   1.490       .  S
C137        N138   1.371       .  A
C137        N142   1.360       .  A
C137        C293   1.482       .  S
N138        C139   1.368       .  A
C139        N140   1.357   1_545  A
C139        C174   1.479   1_545  S
N140        C141   1.349   1_565  A
C141        N142   1.352       .  A
C141        C422   1.486   1_545  S
C143        N144   1.354       .  A
C143        N148   1.353       .  A
C143        C613   1.483       .  S
N144        C145   1.356       .  A
C145        N146   1.369       .  A
C145        C182   1.471       .  S
N146        C147   1.370       .  A
C147        N148   1.357       .  A
C147        C273   1.495       .  S
C149        N150   1.359       .  A
C149        N154   1.367       .  A
C149        C513   1.488       .  S
N150        C151   1.356   1_554  A
C151        N152   1.355   1_546  A
C151        C442   1.470   1_545  S
N152        C153   1.356   1_565  A
C153        N154   1.366       .  A
C153        C175   1.470   1_545  S
C155        N156   1.371   1_456  A
C155        N160   1.364       .  A
C155        C253   1.481   1_455  S
N156        C157   1.366   1_655  A
C157        N158   1.351   1_554  A
C157        C168   1.478       .  S
N158        C159   1.348       .  A
C159        N160   1.357       .  A
C159        C353   1.488       .  S
O161       Ni167   1.935       .  S
O161        C182   1.272       .  A
O162       Ni185   1.924   1_545  S
O162        C171   1.274       .  A
O163       Ni167   1.894       .  S
O163       Ni185   1.917       .  S
O163       Ni179   1.919       .  S
O163        H186   0.966       .  S
C164        O181   1.275       .  A
C164        O173   1.276       .  A
O165       Ni184   1.937   1_545  S
O165        C171   1.273   1_455  A
O166       Ni184   1.900       .  S
O166        C168   1.271       .  A
Ni167       O170   1.923       .  S
Ni167       O172   1.896       .  S
C168        O178   1.273   1_455  A
O169       Ni185   1.933       .  S
O169        C175   1.278       .  A
O170        C175   1.276       .  A
O172        C174   1.270       .  A
O173       Ni184   1.930       .  S
C174        O180   1.276       .  A
H176        O177   0.966       .  S
O177       Ni185   1.920       .  S
O177       Ni179   1.916       .  S
O177       Ni184   1.898   1_655  S
O178       Ni179   1.945       .  S
Ni179       O183   1.916       .  S
Ni179       O181   1.923   1_655  S
O180       Ni185   1.950       .  S
C182        O183   1.269       .  A
C187        N188   1.361       .  A
C187        N192   1.365       .  A
C187        C462   1.498       .  S
N188        C189   1.361       .  A
C189        N190   1.358       .  A
C189        C653   1.489       .  S
N190        C191   1.357       .  A
C191        N192   1.363       .  A
C191        C237   1.469       .  S
C193        N194   1.365       .  A
C193        N198   1.359       .  A
C193        C482   1.490       .  S
N194        C195   1.363       .  A
C195        N196   1.356       .  A
C195        C226   1.468       .  S
N196        C197   1.359       .  A
C197        N198   1.358       .  A
C197        C693   1.487       .  S
C199        N200   1.358       .  A
C199        N204   1.357       .  A
C199        C402   1.487       .  S
N200        C201   1.359       .  A
C201        N202   1.365       .  A
C201        C262   1.480       .  S
N202        C203   1.364       .  A
C203        N204   1.357       .  A
C203        C233   1.469       .  S
C205        N206   1.353       .  A
C205        N210   1.352       .  A
C205        C333   1.483       .  S
N206        C207   1.356   1_455  A
C207        N208   1.368       .  A
C207        C244   1.467       .  S
N208        C209   1.368       .  A
C209        N210   1.356   1_655  A
C209        C302   1.488       .  S
C211        N212   1.375       .  A
C211        N216   1.362       .  A
C211        C313   1.490       .  S
N212        C213   1.370       .  A
C213        N214   1.353       .  A
C213        C230   1.482       .  S
N214        C215   1.345       .  A
C215        N216   1.354       .  A
C215        C642   1.485       .  S
C217        N218   1.359       .  A
C217        N222   1.374       .  A
C217        C282   1.487   1_455  S
N218        C219   1.352       .  A
C219        N220   1.348       .  A
C219        C553   1.485       .  S
N220        C221   1.356       .  A
C221        N222   1.370       .  A
C221        C236   1.482       .  S
O223       Ni229   1.931       .  S
O223        C244   1.272   1_455  A
O224       Ni247   1.918       .  S
O224        C233   1.272       .  A
O225       Ni229   1.886   1_655  S
O225       Ni247   1.908       .  S
O225       Ni241   1.914       .  S
O225        H248   0.967       .  S
C226        O243   1.273       .  A
C226        O235   1.276       .  A
O227       Ni246   1.933       .  S
O227        C233   1.272       .  A
O228       Ni246   1.897       .  S
O228        C230   1.271       .  A
Ni229       O232   1.921       .  S
Ni229       O234   1.899       .  S
C230        O240   1.275       .  A
O231       Ni247   1.938   1_455  S
O231        C237   1.280       .  A
O232        C237   1.276       .  A
O234        C236   1.270       .  A
O235       Ni246   1.930       .  S
C236        O242   1.275   1_455  A
H238        O239   0.964       .  S
O239       Ni247   1.925       .  S
O239       Ni241   1.917       .  S
O239       Ni246   1.896       .  S
O240       Ni241   1.952       .  S
Ni241       O245   1.913       .  S
Ni241       O243   1.921       .  S
O242       Ni247   1.951       .  S
C244        O245   1.270       .  A
C249        C250   1.408       .  A
C249        C254   1.401   1_655  A
C249        H259   1.083   1_655  S
C250        C255   1.502       .  S
C250        C251   1.415       .  A
C251        C252   1.404       .  A
C251        F256   1.357       .  S
C252        C253   1.402       .  A
C252        H257   1.083       .  S
C253        C254   1.405   1_655  A
C254        F258   1.357       .  S
C255        C260   1.416       .  A
C255        C264   1.408       .  A
C260        C261   1.402       .  A
C260        F265   1.357   1_655  S
C261        C262   1.400       .  A
C261        H266   1.083       .  S
C262        C263   1.407       .  A
C263        C264   1.403       .  A
C263        F267   1.358       .  S
C264        H268   1.082       .  S
C269        C270   1.402       .  A
C269        C274   1.396       .  A
C269        H279   1.083       .  S
C270        C275   1.496       .  S
C270        C271   1.412       .  A
C271        C272   1.409       .  A
C271        F276   1.357       .  S
C272        C273   1.407       .  A
C272        H277   1.083       .  S
C273        C274   1.414       .  A
C274        F278   1.358       .  S
C275        C280   1.414       .  A
C275        C284   1.403   1_655  A
C280        C281   1.406       .  A
C280        F285   1.357       .  S
C281        C282   1.403       .  A
C281        H286   1.083       .  S
C282        C283   1.412   1_655  A
C283        C284   1.399       .  A
C283        F287   1.358       .  S
C284        H288   1.083       .  S
C289        C290   1.402       .  A
C289        C294   1.398       .  A
C289        H299   1.083       .  S
C290        C295   1.491       .  S
C290        C291   1.413       .  A
C291        C292   1.404       .  A
C291        F296   1.358       .  S
C292        C293   1.402       .  A
C292        H297   1.083       .  S
C293        C294   1.410       .  A
C294        F298   1.358       .  S
C295        C300   1.412       .  A
C295        C304   1.401       .  A
C300        C301   1.408       .  A
C300        F305   1.357       .  S
C301        C302   1.406       .  A
C301        H306   1.083       .  S
C302        C303   1.411       .  A
C303        C304   1.394       .  A
C303        F307   1.358       .  S
C304        H308   1.083       .  S
C309        C310   1.403       .  A
C309        C314   1.400       .  A
C309        H319   1.083       .  S
C310        C315   1.498       .  S
C310        C311   1.414       .  A
C311        C312   1.407       .  A
C311        F316   1.357       .  S
C312        C313   1.404       .  A
C312        H317   1.083       .  S
C313        C314   1.412       .  A
C314        F318   1.358       .  S
C315        C320   1.405       .  A
C315        C324   1.411       .  A
C320        C321   1.396       .  A
C320        F325   1.358       .  S
C321        C322   1.410       .  A
C321        H326   1.082   1_655  S
C322        C323   1.411       .  A
C323        C324   1.411       .  A
C323        F327   1.357       .  S
C324        H328   1.083       .  S
C329        C330   1.402       .  A
C329        C334   1.397       .  A
C329        H339   1.083       .  S
C330        C335   1.473       .  S
C330        C331   1.402       .  A
C331        C332   1.395       .  A
C331        F336   1.358       .  S
C332        C333   1.409       .  A
C332        H337   1.083       .  S
C333        C334   1.410       .  A
C334        F338   1.357       .  S
C335        C340   1.403       .  A
C335        C344   1.399       .  A
C340        C341   1.401       .  A
C340        F345   1.357       .  S
C341        C342   1.410       .  A
C341        H346   1.083       .  S
C342        C343   1.412       .  A
C343        C344   1.392       .  A
C343        F347   1.357       .  S
C344        H348   1.084       .  S
C349        C350   1.397       .  A
C349        C354   1.393       .  A
C349        H359   1.084       .  S
C350        C355   1.477       .  S
C350        C351   1.406       .  A
C351        C352   1.402       .  A
C351        F356   1.357       .  S
C352        C353   1.407       .  A
C352        H357   1.083       .  S
C353        C354   1.416       .  A
C354        F358   1.358       .  S
C355        C360   1.404       .  A
C355        C364   1.401       .  A
C360        C361   1.395   1_565  A
C360        F365   1.358       .  S
C361        C362   1.407   1_545  A
C361        H366   1.083       .  S
C362        C363   1.413       .  A
C363        C364   1.400       .  A
C363        F367   1.357       .  S
C364        H368   1.083       .  S
C369        C370   1.406       .  A
C369        C374   1.399       .  A
C369        H379   1.083       .  S
C370        C375   1.490       .  S
C370        C371   1.408       .  A
C371        C372   1.399       .  A
C371        F376   1.357       .  S
C372        C373   1.408       .  A
C372        H377   1.083       .  S
C373        C374   1.411       .  A
C374        F378   1.357       .  S
C375        C380   1.407       .  A
C375        C384   1.406   1_565  A
C380        C381   1.400       .  A
C380        F385   1.358       .  S
C381        C382   1.410   1_565  A
C381        H386   1.083       .  S
C382        C383   1.410       .  A
C383        C384   1.398       .  A
C383        F387   1.357       .  S
C384        H388   1.083       .  S
C389        C390   1.406       .  A
C389        C394   1.405       .  A
C389        H399   1.083       .  S
C390        C395   1.482       .  S
C390        C391   1.402       .  A
C391        C392   1.391       .  A
C391        F396   1.358       .  S
C392        C393   1.409       .  A
C392        H397   1.083       .  S
C393        C394   1.410       .  A
C394        F398   1.357       .  S
C395        C400   1.404       .  A
C395        C404   1.403       .  A
C400        C401   1.401       .  A
C400        F405   1.357       .  S
C401        C402   1.409       .  A
C401        H406   1.083       .  S
C402        C403   1.411       .  A
C403        C404   1.397       .  A
C403        F407   1.357       .  S
C404        H408   1.084       .  S
C409        C410   1.403       .  A
C409        C414   1.400       .  A
C409        H419   1.083       .  S
C410        C415   1.476       .  S
C410        C411   1.403       .  A
C411        C412   1.394       .  A
C411        F416   1.358       .  S
C412        C413   1.407       .  A
C412        H417   1.083       .  S
C413        C414   1.411       .  A
C414        F418   1.357       .  S
C415        C420   1.402       .  A
C415        C424   1.402       .  A
C420        C421   1.396       .  A
C420        F425   1.358       .  S
C421        C422   1.409       .  A
C421        H426   1.083       .  S
C422        C423   1.411   1_565  A
C423        C424   1.398   1_545  A
C423        F427   1.357       .  S
C424        H428   1.084   1_565  S
C429        C430   1.404       .  A
C429        C434   1.394       .  A
C429        H439   1.083       .  S
C430        C435   1.485       .  S
C430        C431   1.409       .  A
C431        C432   1.399       .  A
C431        F436   1.357       .  S
C432        C433   1.403       .  A
C432        H437   1.083       .  S
C433        C434   1.407       .  A
C434        F438   1.358       .  S
C435        C440   1.409       .  A
C435        C444   1.406       .  A
C440        C441   1.398   1_565  A
C440        F445   1.357       .  S
C441        C442   1.401   1_545  A
C441        H446   1.083       .  S
C442        C443   1.404       .  A
C443        C444   1.396       .  A
C443        F447   1.358       .  S
C444        H448   1.083       .  S
C449        C450   1.399       .  A
C449        C454   1.396       .  A
C449        H459   1.084       .  S
C450        C455   1.496       .  S
C450        C451   1.412       .  A
C451        C452   1.412       .  A
C451        F456   1.357       .  S
C452        C453   1.409       .  A
C452        H457   1.083       .  S
C453        C454   1.420       .  A
C454        F458   1.357       .  S
C455        C460   1.411       .  A
C455        C464   1.404       .  A
C460        C461   1.404       .  A
C460        F465   1.358       .  S
C461        C462   1.408       .  A
C461        H466   1.083       .  S
C462        C463   1.414       .  A
C463        C464   1.403       .  A
C463        F467   1.357       .  S
C464        H468   1.083       .  S
C469        C470   1.410       .  A
C469        C474   1.411       .  A
C469        H479   1.083       .  S
C470        C475   1.490       .  S
C470        C471   1.404       .  A
C471        C472   1.394       .  A
C471        F476   1.358       .  S
C472        C473   1.408       .  A
C472        H477   1.083       .  S
C473        C474   1.409       .  A
C474        F478   1.357       .  S
C475        C480   1.410       .  A
C475        C484   1.402       .  A
C480        C481   1.402       .  A
C480        F485   1.358       .  S
C481        C482   1.405       .  A
C481        H486   1.083       .  S
C482        C483   1.412       .  A
C483        C484   1.402       .  A
C483        F487   1.357       .  S
C484        H488   1.083       .  S
C489        C490   1.403       .  A
C489        C494   1.395       .  A
C489        H499   1.084       .  S
C490        C495   1.477       .  S
C490        C491   1.404       .  A
C491        C492   1.400       .  A
C491        F496   1.358       .  S
C492        C493   1.409       .  A
C492        H497   1.083       .  S
C493        C494   1.406       .  A
C494        F498   1.357       .  S
C495        C500   1.405       .  A
C495        C504   1.401       .  A
C500        C501   1.398       .  A
C500        F505   1.358       .  S
C501        C502   1.408       .  A
C501        H506   1.083       .  S
C502        C503   1.410       .  A
C503        C504   1.397       .  A
C503        F507   1.357       .  S
C504        H508   1.083       .  S
C509        C510   1.402       .  A
C509        C514   1.403       .  A
C509        H519   1.083       .  S
C510        C515   1.487       .  S
C510        C511   1.408       .  A
C511        C512   1.403       .  A
C511        F516   1.358       .  S
C512        C513   1.405       .  A
C512        H517   1.083       .  S
C513        C514   1.411       .  A
C514        F518   1.357   1_554  S
C515        C520   1.408       .  A
C515        C524   1.401       .  A
C520        C521   1.409       .  A
C520        F525   1.357       .  S
C521        C522   1.406       .  A
C521        H526   1.083       .  S
C522        C523   1.409       .  A
C523        C524   1.397       .  A
C523        F527   1.358       .  S
C524        H528   1.084       .  S
C529        C530   1.403       .  A
C529        C534   1.397       .  A
C529        H539   1.083       .  S
C530        C535   1.486       .  S
C530        C531   1.408       .  A
C531        C532   1.400       .  A
C531        F536   1.357       .  S
C532        C533   1.405       .  A
C532        H537   1.083       .  S
C533        C534   1.409       .  A
C534        F538   1.357       .  S
C535        C540   1.407       .  A
C535        C544   1.402       .  A
C540        C541   1.401       .  A
C540        F545   1.357       .  S
C541        C542   1.408       .  A
C541        H546   1.083       .  S
C542        C543   1.413       .  A
C543        C544   1.397       .  A
C543        F547   1.357       .  S
C544        H548   1.083       .  S
C549        C550   1.401       .  A
C549        C554   1.397       .  A
C549        H559   1.083       .  S
C550        C555   1.478       .  S
C550        C551   1.406       .  A
C551        C552   1.397       .  A
C551        F556   1.358       .  S
C552        C553   1.407       .  A
C552        H557   1.083       .  S
C553        C554   1.413       .  A
C554        F558   1.357       .  S
C555        C560   1.404       .  A
C555        C564   1.403       .  A
C560        C561   1.398       .  A
C560        F565   1.358       .  S
C561        C562   1.408       .  A
C561        H566   1.083       .  S
C562        C563   1.409       .  A
C563        C564   1.396       .  A
C563        F567   1.357       .  S
C564        H568   1.083       .  S
C569        C570   1.401       .  A
C569        C574   1.397       .  A
C569        H579   1.083       .  S
C570        C575   1.482       .  S
C570        C571   1.408       .  A
C571        C572   1.398       .  A
C571        F576   1.358       .  S
C572        C573   1.406       .  A
C572        H577   1.083       .  S
C573        C574   1.414       .  A
C574        F578   1.357       .  S
C575        C580   1.407       .  A
C575        C584   1.402       .  A
C580        C581   1.397       .  A
C580        F585   1.357       .  S
C581        C582   1.405       .  A
C581        H586   1.083       .  S
C582        C583   1.412       .  A
C583        C584   1.396       .  A
C583        F587   1.357       .  S
C584        H588   1.083       .  S
C589        C590   1.408       .  A
C589        C594   1.401       .  A
C589        H599   1.082       .  S
C590        C595   1.500       .  S
C590        C591   1.415       .  A
C591        C592   1.403       .  A
C591        F596   1.357       .  S
C592        C593   1.400       .  A
C592        H597   1.083       .  S
C593        C594   1.405       .  A
C594        F598   1.358       .  S
C595        C600   1.413       .  A
C595        C604   1.407       .  A
C600        C601   1.403       .  A
C600        F605   1.357       .  S
C601        C602   1.405       .  A
C601        H606   1.083       .  S
C602        C603   1.409       .  A
C603        C604   1.401       .  A
C603        F607   1.357       .  S
C604        H608   1.083       .  S
C609        C610   1.402       .  A
C609        C614   1.397       .  A
C609        H619   1.083       .  S
C610        C615   1.474       .  S
C610        C611   1.403       .  A
C611        C612   1.395       .  A
C611        F616   1.358       .  S
C612        C613   1.408       .  A
C612        H617   1.083       .  S
C613        C614   1.410       .  A
C614        F618   1.357       .  S
C615        C620   1.405       .  A
C615        C624   1.400       .  A
C620        C621   1.399       .  A
C620        F625   1.358       .  S
C621        C622   1.407       .  A
C621        H626   1.083       .  S
C622        C623   1.410       .  A
C623        C624   1.393       .  A
C623        F627   1.357   1_554  S
C624        H628   1.084       .  S
C629        C630   1.401       .  A
C629        C634   1.396       .  A
C629        H639   1.083       .  S
C630        C635   1.475       .  S
C630        C631   1.405       .  A
C631        C632   1.395       .  A
C631        F636   1.358       .  S
C632        C633   1.406       .  A
C632        H637   1.083       .  S
C633        C634   1.412       .  A
C634        F638   1.357       .  S
C635        C640   1.406       .  A
C635        C644   1.398       .  A
C640        C641   1.397       .  A
C640        F645   1.358       .  S
C641        C642   1.406       .  A
C641        H646   1.083       .  S
C642        C643   1.415       .  A
C643        C644   1.394       .  A
C643        F647   1.357       .  S
C644        H648   1.084       .  S
C649        C650   1.404       .  A
C649        C654   1.400       .  A
C649        H659   1.083       .  S
C650        C655   1.487       .  S
C650        C651   1.407       .  A
C651        C652   1.399       .  A
C651        F656   1.357       .  S
C652        C653   1.407       .  A
C652        H657   1.083       .  S
C653        C654   1.412       .  A
C654        F658   1.357       .  S
C655        C660   1.407       .  A
C655        C664   1.404       .  A
C660        C661   1.401       .  A
C660        F665   1.357       .  S
C661        C662   1.408       .  A
C661        H666   1.083       .  S
C662        C663   1.411       .  A
C663        C664   1.397       .  A
C663        F667   1.357       .  S
C664        H668   1.083       .  S
C669        C670   1.403       .  A
C669        C674   1.396       .  A
C669        H679   1.083       .  S
C670        C675   1.480       .  S
C670        C671   1.405       .  A
C671        C672   1.399       .  A
C671        F676   1.358       .  S
C672        C673   1.408       .  A
C672        H677   1.083       .  S
C673        C674   1.408       .  A
C674        F678   1.357       .  S
C675        C680   1.404       .  A
C675        C684   1.403       .  A
C680        C681   1.397       .  A
C680        F685   1.357       .  S
C681        C682   1.407       .  A
C681        H686   1.083       .  S
C682        C683   1.412       .  A
C683        C684   1.397       .  A
C683        F687   1.357       .  S
C684        H688   1.083       .  S
C689        C690   1.403       .  A
C689        C694   1.398       .  A
C689        H699   1.083       .  S
C690        C695   1.481       .  S
C690        C691   1.405       .  A
C691        C692   1.397       .  A
C691        F696   1.358       .  S
C692        C693   1.408       .  A
C692        H697   1.083       .  S
C693        C694   1.412       .  A
C694        F698   1.357       .  S
C695        C700   1.405       .  A
C695        C704   1.403       .  A
C700        C701   1.399       .  A
C700        F705   1.357       .  S
C701        C702   1.409       .  A
C701        H706   1.083       .  S
C702        C703   1.410       .  A
C703        C704   1.396       .  A
C703        F707   1.357       .  S
C704        H708   1.083       .  S
C709        C710   1.401       .  A
C709        C714   1.396       .  A
C709        H719   1.084       .  S
C710        C715   1.478       .  S
C710        C711   1.405       .  A
C711        C712   1.398       .  A
C711        F716   1.357       .  S
C712        C713   1.407       .  A
C712        H717   1.083       .  S
C713        C714   1.411       .  A
C714        F718   1.358       .  S
C715        C720   1.405       .  A
C715        C724   1.402       .  A
C720        C721   1.394       .  A
C720        F725   1.358       .  S
C721        C722   1.406       .  A
C721        H726   1.082       .  S
C722        C723   1.413       .  A
C723        C724   1.399       .  A
C723        F727   1.358       .  S
C724        H728   1.083       .  S
