geometry optimzed in LAMMPS
_audit_creation_date              2020-11-30 
_audit_creation_method            'lammps2cif' 
_symmetry_space_group_name_H-M    'P1' 
_symmetry_Int_Tables_number       1 
_symmetry_cell_setting            triclinic 
loop_ 
_symmetry_equiv_pos_as_xyz 
  x,y,z 
_cell_length_a                    45.142299277260065 
_cell_length_b                    22.200645965877527 
_cell_length_c                    33.75071870435004 
_cell_angle_alpha                 84.94161548709924 
_cell_angle_beta                  83.06735593004976 
_cell_angle_gamma                 75.78500536370258 
loop_ 
_atom_site_label 
_atom_site_type_symbol 
_atom_site_fract_x 
_atom_site_fract_y 
_atom_site_fract_z 
_atom_site_charge 
O1          O  0.27388793  0.60219561  0.23754602    -0.81820
O2          O  0.26570007  0.88392970  0.24013235    -0.66510
O3          O  0.26369612  0.71654790  0.26314073    -1.13110
C4          C  0.18034710  0.77163124  0.17993287     1.05070
O5          O  0.21539693  0.91148530  0.25238451    -0.79720
O6          O  0.17441211  0.83884132  0.25254437    -0.67300
Ni7        Ni  0.29810971  0.64861046  0.25850702     1.34870
C8          C  0.17870256  0.79180967  0.27703844     0.83800
O9          O  0.29637397  0.79218526  0.28727796    -0.80260
O10         O  0.32240653  0.69163293  0.28212232    -0.90530
C11         C  0.24188608  0.91904026  0.25710718     0.83370
O12         O  0.31459340  0.67563975  0.20645296    -0.68740
O13         O  0.18600133  0.82598757  0.17491112    -0.88020
C14         C  0.31901811  0.72971430  0.19583822     0.84200
C15         C  0.31921570  0.74647414  0.29317769     1.05770
H16         H  0.24788753  0.79525055  0.18645360     0.37580
O17         O  0.23759794  0.79882159  0.21326871    -1.10680
O18         O  0.20434040  0.75357207  0.27768447    -0.67340
Ni19       Ni  0.23030994  0.72035931  0.23243983     1.26350
O20         O  0.30122723  0.77923903  0.20950292    -0.67560
O21         O  0.19542623  0.72779241  0.20228988    -0.79860
C22         C  0.24896158  0.59770857  0.25831575     0.83590
O23         O  0.22524303  0.64143822  0.25531489    -0.67030
Ni24       Ni  0.20232929  0.86748185  0.21253893     1.27450
Ni25       Ni  0.26692110  0.79808441  0.25022279     1.26060
H26         H  0.25644460  0.71640431  0.29107300     0.38130
O27         O  0.02292954  0.09116581  0.22415487    -0.81820
O28         O  0.01777262  0.36385991  0.25402902    -0.66510
O29         O  0.01322292  0.19551607  0.26174345    -1.13110
C30         C  0.42870577  0.27207391  0.18225057     1.05070
O31         O  0.46721641  0.39773516  0.26364311    -0.79720
O32         O  0.42628175  0.32638082  0.26218754    -0.67300
Ni33       Ni  0.04781113  0.12902462  0.25049122     1.34870
C34         C  0.42907466  0.27370657  0.28108222     0.83800
O35         O  0.04733481  0.26118597  0.29357957    -0.80260
O36         O  0.07303619  0.16368898  0.27848198    -0.90530
C37         C  0.99415325  0.40143284  0.26938217     0.83370
O38         O  0.06358106  0.16675567  0.20145499    -0.68740
O39         O  0.43378240  0.32640095  0.18267759    -0.88020
C40         C  0.06792272  0.22177605  0.19599906     0.84200
C41         C  0.07049134  0.21463533  0.29472771     1.05770
H42         H  0.49755065  0.29165847  0.19204188     0.37580
O43         O  0.48732434  0.28957627  0.21880871    -1.10680
O44         O  0.45275139  0.22980889  0.27613236    -0.67340
Ni45       Ni  0.47990138  0.20846791  0.22928513     1.26350
O46         O  0.05093235  0.26736007  0.21466814    -0.67560
O47         O  0.44551834  0.22382230  0.19864395    -0.79860
C48         C  0.49841077  0.08256580  0.24408729     0.83590
O49         O  0.47448861  0.12608361  0.24253241    -0.67030
Ni50       Ni  0.45251633  0.35944279  0.22232330     1.27450
Ni51       Ni  0.01721842  0.27810876  0.25657385     1.26060
H52         H  0.00574817  0.18752281  0.28929845     0.38130
O53         O  0.03560881  0.59579355  0.04318904    -0.81820
O54         O  0.02345480  0.87083671  0.05449621    -0.66510
O55         O  0.01292717  0.70697278  0.08489366    -1.13110
C56         C  0.43237360  0.76749320  0.33626271     1.05070
O57         O  0.47448371  0.90343969  0.07094364    -0.79720
O58         O  0.43408791  0.82822344  0.09334492    -0.67300
Ni59       Ni  0.04855377  0.63870468  0.08399578     1.34870
C60         C  0.43037045  0.77318819  0.10150912     0.83800
O61         O  0.05329426  0.77827070  0.10284715    -0.80260
O62         O  0.06519738  0.67675712  0.12326462    -0.90530
C63         C  0.99905541  0.91305618  0.05179390     0.83370
O64         O  0.07563043  0.67123584  0.04473515    -0.68740
O65         O  0.42897156  0.82147656  0.34880953    -0.88020
C66         C  0.07209025  0.72202746  0.35691943     0.84200
C67         C  0.06970043  0.73189872  0.12175812     1.05770
H68         H  0.49512364  0.79974240  0.34336982     0.37580
O69         O  0.48703962  0.79482773  0.03769012    -1.10680
O70         O  0.44918699  0.72554359  0.08695261    -0.67340
Ni71       Ni  0.48407186  0.71172135  0.04650852     1.26350
O72         O  0.04712932  0.76304368  0.02544372    -0.67560
O73         O  0.45514297  0.72137662  0.34162393    -0.79860
C74         C  0.50905833  0.58856181  0.03821265     0.83590
O75         O  0.48492316  0.62531365  0.05304302    -0.67030
Ni76       Ni  0.45184990  0.86117615  0.04406950     1.27450
Ni77       Ni  0.01935584  0.78823565  0.07111267     1.26060
H78         H  0.00228537  0.70686364  0.11151415     0.38130
O79         O  0.28438270  0.08307239  0.05129721    -0.81820
O80         O  0.27398429  0.35591472  0.04885165    -0.66510
O81         O  0.26300319  0.19646495  0.09009979    -1.13110
C82         C  0.17871883  0.25100039  0.34926179     1.05070
O83         O  0.22592162  0.39259348  0.07069852    -0.79720
O84         O  0.18693624  0.31663204  0.10327939    -0.67300
Ni85       Ni  0.29777152  0.12757790  0.09059423     1.34870
C86         C  0.18274368  0.26202936  0.11256548     0.83800
O87         O  0.30519753  0.26794113  0.10069439    -0.80260
O88         O  0.31420665  0.16962829  0.12779210    -0.90530
C89         C  0.24970923  0.39911866  0.04811189     0.83370
O90         O  0.32522451  0.15554327  0.04985647    -0.68740
O91         O  0.17570573  0.30464861  0.36208426    -0.88020
C92         C  0.32189818  0.20346978  0.35932051     0.84200
C93         C  0.32051536  0.22335835  0.12226201     1.05770
H94         H  0.24287400  0.28129783  0.34733826     0.37580
O95         O  0.23594928  0.27988449  0.04207192    -1.10680
O96         O  0.19966442  0.21410017  0.09624203    -0.67340
Ni97       Ni  0.23297874  0.19798548  0.05416931     1.26350
O98         O  0.29673174  0.24394861  0.02579312    -0.67560
O99         O  0.20244237  0.20591364  0.35176898    -0.79860
C100        C  0.25778029  0.07588064  0.04687529     0.83590
O101        O  0.23410881  0.11191759  0.06340057    -0.67030
Ni102      Ni  0.20105965  0.34675120  0.05078710     1.27450
Ni103      Ni  0.27003040  0.27561632  0.07138048     1.26060
H104        H  0.25303039  0.19977546  0.11708200     0.38130
C105        C  0.34782684  0.23469802  0.13921516    -0.07050
C106        C  0.34968969  0.29657961  0.14243391    -0.18180
C107        C  0.37555354  0.31092648  0.15529625     0.10140
C108        C  0.40130548  0.26251323  0.16437346    -0.06980
C109        C  0.39942247  0.20074481  0.16073182    -0.18210
C110        C  0.37350011  0.18634775  0.14852997     0.10170
S111        S  0.37336064  0.39192199  0.16061450    -0.33180
S112        S  0.37558592  0.10482991  0.14494832    -0.33190
H113        H  0.36771398  0.11209488  0.10553584     0.28180
H114        H  0.37870796  0.38262977  0.20115715     0.28180
H115        H  0.33051631  0.33461489  0.13538907     0.18770
H116        H  0.41847760  0.16233899  0.16760598     0.18780
C117        C  0.09631220  0.23206025  0.17131883    -0.07050
C118        C  0.12360904  0.18548147  0.17393191    -0.18180
C119        C  0.15240662  0.19578274  0.15859496     0.10140
C120        C  0.15459196  0.25382335  0.13877617    -0.06980
C121        C  0.12730671  0.30068800  0.13649087    -0.18210
C122        C  0.09847904  0.29044140  0.15208510     0.10170
S123        S  0.18557331  0.13325094  0.16664952    -0.33180
S124        S  0.06520854  0.35293522  0.14462161    -0.33190
H125        H  0.04564257  0.31374390  0.14073810     0.28180
H126        H  0.20514189  0.17257460  0.17025309     0.28180
H127        H  0.12276885  0.14128411  0.18989577     0.18770
H128        H  0.12812509  0.34476661  0.12036391     0.18780
C129        C  0.34945840  0.21666958  0.33549689    -0.07050
C130        C  0.37804206  0.19059342  0.01686034    -0.18180
C131        C  0.40415984  0.21155285  0.33553859     0.10140
C132        C  0.40199328  0.25969530  0.30503620    -0.06980
C133        C  0.37356823  0.28550794  0.29020013    -0.18210
C134        C  0.34769404  0.26346229  0.30413697     0.10170
S135        S  0.43909303  0.17664213  0.02481771    -0.33180
S136        S  0.31408111  0.29403545  0.27829857    -0.33190
H137        H  0.30407894  0.23835915  0.28282518     0.28180
H138        H  0.45047815  0.23071719  0.02005142     0.28180
H139        H  0.37998057  0.15529035  0.04125121     0.18770
H140        H  0.37186325  0.32022662  0.26538389     0.18780
C141        C  0.15167474  0.24069201  0.33437245    -0.07050
C142        C  0.12310603  0.26686854  0.35516060    -0.18180
C143        C  0.09604215  0.25753354  0.34415004     0.10140
C144        C  0.09762827  0.22100389  0.31165129    -0.06980
C145        C  0.12632170  0.19420890  0.29118510    -0.18210
C146        C  0.15330579  0.20475912  0.30170660     0.10170
S147        S  0.06068828  0.29219227  0.37325071    -0.33180
S148        S  0.18845519  0.17564817  0.27056430    -0.33190
H149        H  0.20102115  0.22687373  0.27368103     0.28180
H150        H  0.04673947  0.24273966  0.37070060     0.27980
H151        H  0.12186211  0.29402120  0.38074886     0.18770
H152        H  0.12766543  0.16760142  0.26532221     0.18780
C153        C  0.49912303  0.03461817  0.27791917    -0.07050
C154        C  0.02440430  0.02055856  0.30062372    -0.18180
C155        C  0.02390803  0.98558077  0.00401723     0.10140
C156        C  0.99816211  0.96129828  0.01811468    -0.06980
C157        C  0.47281417  0.97560020  0.32885977    -0.18210
C158        C  0.47303658  0.01152202  0.29251486     0.10170
S159        S  0.05602940  0.97685620  0.03276085    -0.33180
S160        S  0.43956805  0.02470157  0.26566211    -0.33190
H161        H  0.45560630  0.02672055  0.22733058     0.28180
H162        H  0.03902340  0.97427920  0.07039055     0.28180
H163        H  0.04409666  0.03978999  0.95759496     0.18770
H164        H  0.45303517  0.95663907  0.33872615     0.18780
C165        C  0.50605452  0.53984792  0.01209756    -0.07050
C166        C  0.48391149  0.50525949  0.02393376    -0.18180
C167        C  0.47996670  0.45929349  0.00026559     0.10140
C168        C  0.99798307  0.44807343  0.29636884    -0.06980
C169        C  0.02024012  0.48224862  0.28468505    -0.18210
C170        C  0.02398235  0.52852737  0.30814950     0.10170
S171        S  0.45267987  0.41438908  0.02034258    -0.33180
S172        S  0.05024882  0.57475216  0.28695918    -0.33190
H173        H  0.03194074  0.63145981  0.30060806     0.28180
H174        H  0.47036814  0.35757480  0.00605695     0.28180
H175        H  0.46996877  0.51318380  0.05231769     0.18770
H176        H  0.03403338  0.47458574  0.25616995     0.18780
C177        C  0.34715910  0.73696635  0.16906489    -0.07050
C178        C  0.34695045  0.79517732  0.14877682    -0.18180
C179        C  0.37347346  0.80865453  0.12752721     0.10140
C180        C  0.40190668  0.76348153  0.12656773    -0.06980
C181        C  0.40206589  0.70481560  0.14624211    -0.18210
C182        C  0.37548081  0.69137946  0.16764641     0.10170
S183        S  0.36864135  0.88352299  0.10056133    -0.33180
S184        S  0.38005261  0.61632641  0.19431013    -0.33190
H185        H  0.36918559  0.64187562  0.23147348     0.28180
H186        H  0.37976251  0.85745678  0.06362460     0.28180
H187        H  0.32572529  0.83098817  0.14931760     0.18770
H188        H  0.42331943  0.66908608  0.14555539     0.18780
C189        C  0.09705896  0.74261416  0.13891735    -0.07050
C190        C  0.11245872  0.78588676  0.11802751    -0.18180
C191        C  0.14023949  0.79415534  0.12895272     0.10140
C192        C  0.15327541  0.75966594  0.16257011    -0.06980
C193        C  0.13792512  0.71614097  0.18335238    -0.18210
C194        C  0.11024369  0.70754558  0.17219281     0.10170
S195        S  0.15849265  0.84710791  0.09723540    -0.33180
S196        S  0.09228809  0.65330613  0.20300854    -0.33190
H197        H  0.06207868  0.68857780  0.19992325     0.28180
H198        H  0.18846874  0.81015825  0.09962355     0.28180
H199        H  0.10343368  0.81203954  0.09165902     0.18770
H200        H  0.14691140  0.68992497  0.20971096     0.18780
C201        C  0.34565092  0.75750869  0.30903586    -0.07050
C202        C  0.36022859  0.80040330  0.28694756    -0.18180
C203        C  0.39035202  0.80030948  0.29200642     0.10140
C204        C  0.40590990  0.75708857  0.32012415    -0.06980
C205        C  0.39126328  0.71435940  0.00895854    -0.18210
C206        C  0.36111107  0.71469488  0.00408447     0.10170
S207        S  0.40799817  0.85530690  0.26130659    -0.33180
S208        S  0.34329278  0.66050383  0.03541983    -0.33190
H209        H  0.31288451  0.69523986  0.03317994     0.28180
H210        H  0.43846293  0.82094576  0.26358064     0.28180
H211        H  0.34876376  0.83155447  0.26392276     0.18770
H212        H  0.40268093  0.68324424  0.03204511     0.18780
C213        C  0.15240665  0.77557515  0.30138173    -0.07050
C214        C  0.15192299  0.71229001  0.30555287    -0.18180
C215        C  0.12545504  0.69326432  0.98734195     0.10140
C216        C  0.09879960  0.73834487  0.33315873    -0.06980
C217        C  0.09944204  0.80178813  0.32924893    -0.18210
C218        C  0.12600277  0.82066833  0.31403241     0.10170
S219        S  0.12707200  0.61131366  0.98789325    -0.33180
S220        S  0.12529400  0.90231206  0.31314259    -0.33190
H221        H  0.15609804  0.89291895  0.32088748     0.28180
H222        H  0.09683175  0.62094423  0.97838456     0.28180
H223        H  0.17183017  0.67721634  0.96156538     0.18770
H224        H  0.07957798  0.83702607  0.33991614     0.18780
C225        C  0.24534756  0.96201575  0.28738380    -0.07050
C226        C  0.27450983  0.95488957  0.30069139    -0.18180
C227        C  0.27901067  0.98767748  0.99898500     0.10140
C228        C  0.25402993  0.03160077  0.01762190    -0.06980
C229        C  0.22480611  0.03831248  0.33793937    -0.18210
C230        C  0.22019286  0.00471659  0.30675565     0.10170
S231        S  0.31713657  0.96870264  0.01479327    -0.33180
S232        S  0.18153097  0.01998591  0.29306513    -0.33190
H233        H  0.19053411  0.02687914  0.25183254     0.28180
H234        H  0.30676657  0.96655139  0.05581913     0.28180
H235        H  0.29408530  0.92152944  0.28734863     0.18770
H236        H  0.20522937  0.07165377  0.01797214     0.18780
C237        C  0.24859140  0.54804526  0.29037260    -0.07050
C238        C  0.24907314  0.48862424  0.27978166    -0.18180
C239        C  0.24713127  0.44087490  0.30907259     0.10140
C240        C  0.24784274  0.45039281  0.01660881    -0.06980
C241        C  0.24694596  0.51011573  0.02733081    -0.18210
C242        C  0.24626858  0.55954155  0.33151682     0.10170
S243        S  0.23940724  0.37256899  0.29235182    -0.33180
S244        S  0.24228324  0.63648265  0.01440743    -0.33190
H245        H  0.23891935  0.62162292  0.38917610     0.28180
H246        H  0.21260294  0.37746811  0.31897757     0.28180
H247        H  0.24913027  0.48032288  0.24858539     0.18770
H248        H  0.24653257  0.51794966  0.05862932     0.18780
O249        O  0.27388919  0.60220706  0.57086848    -0.81820
O250        O  0.26569869  0.88394500  0.57346247    -0.66510
O251        O  0.26369695  0.71656029  0.59646325    -1.13110
C252        C  0.18034383  0.77164912  0.51326084     1.05070
O253        O  0.21539553  0.91149595  0.58571707    -0.79720
O254        O  0.17441124  0.83885103  0.58587584    -0.67300
Ni255      Ni  0.29811103  0.64862384  0.59182790     1.34870
C256        C  0.17870284  0.79181673  0.61036777     0.83800
O257        O  0.29637515  0.79219649  0.62060254    -0.80260
O258        O  0.32240844  0.69164578  0.61544252    -0.90530
C259        C  0.24188449  0.91905240  0.59043947     0.83370
O260        O  0.31459229  0.67565759  0.53977338    -0.68740
O261        O  0.18599746  0.82600614  0.50824112    -0.88020
C262        C  0.31901743  0.72973244  0.52916005     0.84200
C263        C  0.31921737  0.74648555  0.62650032     1.05770
H264        H  0.24788497  0.79526990  0.51977977     0.37580
O265        O  0.23759632  0.79883771  0.54659548    -1.10680
O266        O  0.20434089  0.75357920  0.61101097    -0.67340
Ni267      Ni  0.23030954  0.72037295  0.56576390     1.26350
O268        O  0.30122677  0.77925668  0.54282630    -0.67560
O269        O  0.19542432  0.72780819  0.53561545    -0.79860
C270        C  0.24896274  0.59771968  0.59163806     0.83590
O271        O  0.22524407  0.64144919  0.58863680    -0.67030
Ni272      Ni  0.20232673  0.86749656  0.54587012     1.27450
Ni273      Ni  0.26692112  0.79809803  0.58354833     1.26060
H274        H  0.25644589  0.71641587  0.62439568     0.38130
O275        O  0.02291429  0.09116922  0.55749014    -0.81820
O276        O  0.01776953  0.36385693  0.58736479    -0.66510
O277        O  0.01321565  0.19551578  0.59507969    -1.13110
C278        C  0.42869413  0.27208887  0.51559691     1.05070
O279        O  0.46721371  0.39773642  0.59698376    -0.79720
O280        O  0.42627603  0.32639007  0.59553089    -0.67300
Ni281      Ni  0.04780155  0.12902305  0.58382024     1.34870
C282        C  0.42906921  0.27371786  0.61442844     0.83800
O283        O  0.04733233  0.26117789  0.62691065    -0.80260
O284        O  0.07303223  0.16368336  0.61180487    -0.90530
C285        C  0.99415147  0.40143127  0.60271974     0.83370
O286        O  0.06356536  0.16675566  0.53478110    -0.68740
O287        O  0.43377453  0.32641308  0.51602019    -0.88020
C288        C  0.06791018  0.22177352  0.52932711     0.84200
C289        C  0.07048896  0.21462669  0.62805361     1.05770
H290        H  0.49754105  0.29165947  0.52538046     0.37580
O291        O  0.48731621  0.28957938  0.55214828    -1.10680
O292        O  0.45274578  0.22981991  0.60947885    -0.67340
Ni293      Ni  0.47989033  0.20847405  0.56262773     1.26350
O294        O  0.05092398  0.26735701  0.54800033    -0.67560
O295        O  0.44550376  0.22383553  0.53199265    -0.79860
C296        C  0.49839693  0.08257157  0.57742764     0.83590
O297        O  0.47447522  0.12609178  0.57587758    -0.67030
Ni298      Ni  0.45251057  0.35944973  0.55566510     1.27450
Ni299      Ni  0.01721305  0.27810691  0.58990944     1.26060
H300        H  0.00574357  0.18752117  0.62263561     0.38130
O301        O  0.03561301  0.59578580  0.37652306    -0.81820
O302        O  0.02345690  0.87083199  0.38780457    -0.66510
O303        O  0.01292649  0.70697464  0.41821759    -1.13110
C304        C  0.43237419  0.76750109  0.66959437     1.05070
O305        O  0.47448466  0.90344658  0.40424180    -0.79720
O306        O  0.43409092  0.82822625  0.42665682    -0.67300
Ni307      Ni  0.04855372  0.63870765  0.41732793     1.34870
C308        C  0.43037141  0.77319269  0.43482423     0.83800
O309        O  0.05329395  0.77827840  0.43616469    -0.80260
O310        O  0.06519367  0.67677056  0.45659541    -0.90530
C311        C  0.99905897  0.91305250  0.38509361     0.83370
O312        O  0.07563233  0.67123333  0.37806735    -0.68740
O313        O  0.42897277  0.82148384  0.68214190    -0.88020
C314        C  0.07209173  0.72203201  0.69025190     0.84200
C315        C  0.06969807  0.73191174  0.45508254     1.05770
H316        H  0.49512469  0.79974768  0.67670391     0.37580
O317        O  0.48704155  0.79481964  0.37100523    -1.10680
O318        O  0.44918670  0.72554443  0.42026964    -0.67340
Ni319      Ni  0.48407446  0.71171327  0.37982925     1.26350
O320        O  0.04712866  0.76302998  0.35876301    -0.67560
O321        O  0.45514301  0.72138320  0.67495575    -0.79860
C322        C  0.50906387  0.58854994  0.37154387     0.83590
O323        O  0.48492690  0.62530414  0.38636851    -0.67030
Ni324      Ni  0.45185167  0.86116883  0.37737656     1.27450
Ni325      Ni  0.01935600  0.78823532  0.40442939     1.26060
H326        H  0.00228292  0.70687149  0.44483723     0.38130
O327        O  0.28438296  0.08309291  0.38463205    -0.81820
O328        O  0.27396516  0.35594594  0.38220947    -0.66510
O329        O  0.26299717  0.19647889  0.42344372    -1.13110
C330        C  0.17871620  0.25100086  0.68258071     1.05070
O331        O  0.22590021  0.39260599  0.40405090    -0.79720
O332        O  0.18692523  0.31662870  0.43662565    -0.67300
Ni333      Ni  0.29776845  0.12759836  0.42393218     1.34870
C334        C  0.18273478  0.26202401  0.44590758     0.83800
O335        O  0.30518227  0.26796936  0.43404991    -0.80260
O336        O  0.31420024  0.16964713  0.46113351    -0.90530
C337        C  0.24968640  0.39914019  0.38146551     0.83370
O338        O  0.32521782  0.15557689  0.38319532    -0.68740
O339        O  0.17570085  0.30465202  0.69539987    -0.88020
C340        C  0.32189057  0.20348585  0.69266359     0.84200
C341        C  0.32050411  0.22338177  0.45561030     1.05770
H342        H  0.24286877  0.28130810  0.68066676     0.37580
O343        O  0.23594000  0.27989931  0.37541883    -1.10680
O344        O  0.19965891  0.21409847  0.42958360    -0.67340
Ni345      Ni  0.23297490  0.19799543  0.38751191     1.26350
O346        O  0.29672554  0.24399027  0.35914555    -0.67560
O347        O  0.20244023  0.20591659  0.68509208    -0.79860
C348        C  0.25778190  0.07589274  0.38021188     0.83590
O349        O  0.23410947  0.11192469  0.39673883    -0.67030
Ni350      Ni  0.20104503  0.34675614  0.38413513     1.27450
Ni351      Ni  0.27001795  0.27563895  0.40473227     1.26060
H352        H  0.25302408  0.19978100  0.45042619     0.38130
C353        C  0.34781538  0.23471991  0.47256296    -0.07050
C354        C  0.34967068  0.29660018  0.47580342    -0.18180
C355        C  0.37553481  0.31094610  0.48866526     0.10140
C356        C  0.40129338  0.26253374  0.49772033    -0.06980
C357        C  0.39941784  0.20076739  0.49405660    -0.18210
C358        C  0.37349601  0.18637102  0.48185393     0.10170
S359        S  0.37333413  0.39193761  0.49401061    -0.33180
S360        S  0.37559350  0.10485729  0.47823428    -0.33190
H361        H  0.36770996  0.11216819  0.43882663     0.28180
H362        H  0.37870628  0.38261388  0.53454386     0.28180
H363        H  0.33049154  0.33463378  0.46877578     0.18770
H364        H  0.41847922  0.16236331  0.50091195     0.18780
C365        C  0.09629953  0.23205397  0.50464599    -0.07050
C366        C  0.12359487  0.18547040  0.50725656    -0.18180
C367        C  0.15239353  0.19576974  0.49192371     0.10140
C368        C  0.15458127  0.25381353  0.47211189    -0.06980
C369        C  0.12729718  0.30068165  0.46982736    -0.18210
C370        C  0.09846854  0.29043680  0.48541726     0.10170
S371        S  0.18555821  0.13323176  0.49997555    -0.33180
S372        S  0.06519976  0.35293618  0.47795617    -0.33190
H373        H  0.04563128  0.31375039  0.47407187     0.28180
H374        H  0.20512757  0.17254970  0.50358886     0.28180
H375        H  0.12275274  0.14127111  0.52321651     0.18770
H376        H  0.12811731  0.34476284  0.45370500     0.18780
C377        C  0.34945140  0.21668672  0.66884233    -0.07050
C378        C  0.37805043  0.19046535  0.35012688    -0.18180
C379        C  0.40415390  0.21156064  0.66888321     0.10140
C380        C  0.40198792  0.25970897  0.63838452    -0.06980
C381        C  0.37356223  0.28553138  0.62355276    -0.18210
C382        C  0.34768746  0.26348723  0.63748721     0.10170
S383        S  0.43913234  0.17624507  0.35800414    -0.33180
S384        S  0.31407394  0.29407543  0.61165201    -0.33190
H385        H  0.30407285  0.23839804  0.61616501     0.28180
H386        H  0.45055909  0.23026847  0.35332349     0.28180
H387        H  0.37999167  0.15505592  0.37445447     0.18770
H388        H  0.37185683  0.32025691  0.59874080     0.18780
C389        C  0.15167301  0.24068567  0.66769342    -0.07050
C390        C  0.12310481  0.26685687  0.68848437    -0.18180
C391        C  0.09604118  0.25751871  0.67747598     0.10140
C392        C  0.09762681  0.22099207  0.64497594    -0.06980
C393        C  0.12631986  0.19420001  0.62450761    -0.18210
C394        C  0.15330403  0.20475257  0.63502770     0.10170
S395        S  0.06068813  0.29217059  0.70658084    -0.33180
S396        S  0.18845321  0.17564467  0.60388426    -0.33190
H397        H  0.20101909  0.22686988  0.60700226     0.28180
H398        H  0.04674097  0.24271562  0.70403044     0.27980
H399        H  0.12186110  0.29400862  0.71407297     0.18770
H400        H  0.12766302  0.16759382  0.59864426     0.18780
C401        C  0.49911228  0.03462302  0.61125920    -0.07050
C402        C  0.02439642  0.02056186  0.63395870    -0.18180
C403        C  0.02391830  0.98557047  0.33732232     0.10140
C404        C  0.99817228  0.96128236  0.35140813    -0.06980
C405        C  0.47280819  0.97560306  0.66220390    -0.18210
C406        C  0.47302677  0.01152686  0.62585957     0.10170
S407        S  0.05602578  0.97687336  0.36608714    -0.33180
S408        S  0.43955457  0.02470922  0.59901372    -0.33190
H409        H  0.45558868  0.02673055  0.56067966     0.28180
H410        H  0.03900778  0.97430051  0.40370852     0.28180
H411        H  0.04411830  0.03976453  0.29090326     0.18770
H412        H  0.45302957  0.95664249  0.67207388     0.18780
C413        C  0.50606453  0.53982548  0.34543310    -0.07050
C414        C  0.48392216  0.50523566  0.35726989    -0.18180
C415        C  0.47998270  0.45925804  0.33360681     0.10140
C416        C  0.99798339  0.44807093  0.62970485    -0.06980
C417        C  0.02023992  0.48224622  0.61801809    -0.18210
C418        C  0.02398244  0.52852717  0.64148026     0.10170
S419        S  0.45269536  0.41435541  0.35368463    -0.33180
S420        S  0.05024806  0.57475197  0.62028675    -0.33190
H421        H  0.03194012  0.63146017  0.63393498     0.28180
H422        H  0.47038446  0.35753833  0.33940414     0.28180
H423        H  0.46997571  0.51316811  0.38565056     0.18770
H424        H  0.03403218  0.47458208  0.58950240     0.18780
C425        C  0.34715873  0.73698408  0.50238635    -0.07050
C426        C  0.34695186  0.79519576  0.48209990    -0.18180
C427        C  0.37347519  0.80866908  0.46084785     0.10140
C428        C  0.40190712  0.76349154  0.45988491    -0.06980
C429        C  0.40206452  0.70482592  0.47955876    -0.18210
C430        C  0.37547926  0.69139342  0.50096481     0.10170
S431        S  0.36864495  0.88353890  0.43388380    -0.33180
S432        S  0.38004970  0.61633907  0.52762664    -0.33190
H433        H  0.36918513  0.64188643  0.56479107     0.28180
H434        H  0.37976846  0.85747615  0.39694648     0.28180
H435        H  0.32572780  0.83100978  0.48264327     0.18770
H436        H  0.42331693  0.66909313  0.47887002     0.18780
C437        C  0.09705560  0.74263150  0.47224305    -0.07050
C438        C  0.11245720  0.78590007  0.45135146    -0.18180
C439        C  0.14023753  0.79416982  0.46227819     0.10140
C440        C  0.15327148  0.75968509  0.49589834    -0.06980
C441        C  0.13791901  0.71616541  0.51668286    -0.18210
C442        C  0.11023780  0.70756971  0.50552239     0.10170
S443        S  0.15849299  0.84711721  0.43055930    -0.33180
S444        S  0.09227900  0.65333904  0.53634210    -0.33190
H445        H  0.06207055  0.68861273  0.53325198     0.28180
H446        H  0.18846869  0.81016863  0.43295291     0.28180
H447        H  0.10343404  0.81204840  0.42498059     0.18770
H448        H  0.14690351  0.68995394  0.54304380     0.18780
C449        C  0.34565237  0.75751833  0.64236042    -0.07050
C450        C  0.36023012  0.80041557  0.62027542    -0.18180
C451        C  0.39035309  0.80032219  0.62533690     0.10140
C452        C  0.40591049  0.75709888  0.65345394    -0.06980
C453        C  0.39126777  0.71433935  0.34228652    -0.18210
C454        C  0.36111352  0.71468026  0.33742046     0.10170
S455        S  0.40799936  0.85532306  0.59464088    -0.33180
S456        S  0.34329473  0.66049940  0.36876518    -0.33190
H457        H  0.31288693  0.69523956  0.36652781     0.28180
H458        H  0.43846411  0.82096184  0.59691477     0.28180
H459        H  0.34876572  0.83156885  0.59725117     0.18770
H460        H  0.40268664  0.68322771  0.36537365     0.18780
C461        C  0.15240786  0.77558006  0.63471217    -0.07050
C462        C  0.15192274  0.71229556  0.63887831    -0.18180
C463        C  0.12545985  0.69326114  0.32068125     0.10140
C464        C  0.09880107  0.73835053  0.66649167    -0.06980
C465        C  0.09944515  0.80179293  0.66258724    -0.18210
C466        C  0.12600582  0.82067259  0.64736951     0.10170
S467        S  0.12708418  0.61130609  0.32124269    -0.33180
S468        S  0.12529965  0.90231433  0.64648670    -0.33190
H469        H  0.15610516  0.89291497  0.65422654     0.28180
H470        H  0.09684671  0.62092030  0.31172614     0.28180
H471        H  0.17183784  0.67722014  0.29491902     0.18770
H472        H  0.07958252  0.83703000  0.67325941     0.18780
C473        C  0.24534537  0.96202678  0.62071761    -0.07050
C474        C  0.27450779  0.95490469  0.63402405    -0.18180
C475        C  0.27901630  0.98770362  0.33231066     0.10140
C476        C  0.25403328  0.03160754  0.35096032    -0.06980
C477        C  0.22480246  0.03831892  0.67127586    -0.18210
C478        C  0.22018988  0.00472320  0.64009168     0.10170
S479        S  0.31714850  0.96876062  0.34809720    -0.33180
S480        S  0.18152745  0.01998718  0.62640381    -0.33190
H481        H  0.19052860  0.02688671  0.58517108     0.28180
H482        H  0.30679144  0.96658242  0.38912659     0.28180
H483        H  0.29408392  0.92154780  0.62067972     0.18770
H484        H  0.20522742  0.07161789  0.35133744     0.18780
C485        C  0.24859188  0.54805566  0.62369503    -0.07050
C486        C  0.24906524  0.48863800  0.61310525    -0.18180
C487        C  0.24712032  0.44089050  0.64239702     0.10140
C488        C  0.24781519  0.45041178  0.34996008    -0.06980
C489        C  0.24691734  0.51013697  0.36067886    -0.18210
C490        C  0.24627448  0.55954980  0.66483905     0.10170
S491        S  0.23939196  0.37258710  0.62567807    -0.33180
S492        S  0.24223315  0.63650982  0.34774967    -0.33190
H493        H  0.23894438  0.62162546  0.72249852     0.28180
H494        H  0.21258931  0.37748864  0.65230680     0.28180
H495        H  0.24911894  0.48033819  0.58190946     0.18770
H496        H  0.24650261  0.51797667  0.39197675     0.18780
O497        O  0.27389678  0.60220344  0.90419986    -0.81820
O498        O  0.26569804  0.88393761  0.90678546    -0.66510
O499        O  0.26369964  0.71655402  0.92979699    -1.13110
C500        C  0.18034684  0.77162686  0.84659460     1.05070
O501        O  0.21539520  0.91148534  0.91904551    -0.79720
O502        O  0.17441241  0.83883577  0.91920860    -0.67300
Ni503      Ni  0.29811558  0.64862066  0.92516303     1.34870
C504        C  0.17870379  0.79180221  0.94370121     0.83800
O505        O  0.29637606  0.79219830  0.95393077    -0.80260
O506        O  0.32241022  0.69164655  0.94877964    -0.90530
C507        C  0.24188445  0.91904484  0.92376334     0.83370
O508        O  0.31459850  0.67565099  0.87310947    -0.68740
O509        O  0.18599915  0.82598488  0.84157446    -0.88020
C510        C  0.31902081  0.72972644  0.86249294     0.84200
C511        C  0.31921775  0.74648881  0.95983410     1.05770
H512        H  0.24788520  0.79525478  0.85311130     0.37580
O513        O  0.23759699  0.79882370  0.87992716    -1.10680
O514        O  0.20434150  0.75356275  0.94434461    -0.67340
Ni515      Ni  0.23031259  0.72035794  0.89909855     1.26350
O516        O  0.30122752  0.77925034  0.87615558    -0.67560
O517        O  0.19542771  0.72778671  0.86894979    -0.79860
C518        C  0.24897296  0.59770711  0.92497197     0.83590
O519        O  0.22525143  0.64143135  0.92197402    -0.67030
Ni520      Ni  0.20232695  0.86748064  0.87920115     1.27450
Ni521      Ni  0.26692204  0.79809168  0.91687760     1.26060
H522        H  0.25644781  0.71641248  0.95773028     0.38130
O523        O  0.02288600  0.09121585  0.89086090    -0.81820
O524        O  0.01774853  0.36393063  0.92066560    -0.66510
O525        O  0.01320547  0.19558559  0.92842166    -1.13110
C526        C  0.42867704  0.27212202  0.84894084     1.05070
O527        O  0.46719139  0.39778123  0.93030470    -0.79720
O528        O  0.42624155  0.32644799  0.92882832    -0.67300
Ni529      Ni  0.04778715  0.12909239  0.91715497     1.34870
C530        C  0.42904626  0.27379777  0.94775598     0.83800
O531        O  0.04732857  0.26126771  0.96021871    -0.80260
O532        O  0.07302974  0.16377479  0.94510779    -0.90530
C533        C  0.99412938  0.40148983  0.93603245     0.83370
O534        O  0.06353150  0.16681088  0.86809679    -0.68740
O535        O  0.43377440  0.32643944  0.84932654    -0.88020
C536        C  0.06788388  0.22182308  0.86263648     0.84200
C537        C  0.07048812  0.21472008  0.96135441     1.05770
H538        H  0.49752115  0.29167848  0.85870601     0.37580
O539        O  0.48729903  0.28962266  0.88547692    -1.10680
O540        O  0.45274322  0.22993446  0.94285258    -0.67340
Ni541      Ni  0.47986838  0.20853040  0.89599224     1.26350
O542        O  0.05090611  0.26741322  0.88131151    -0.67560
O543        O  0.44546971  0.22388160  0.86537467    -0.79860
C544        C  0.49837104  0.08263122  0.91081469     0.83590
O545        O  0.47445076  0.12615974  0.90927891    -0.67030
Ni546      Ni  0.45249500  0.35949480  0.88897882     1.27450
Ni547      Ni  0.01720084  0.27817637  0.92322828     1.26060
H548        H  0.00574241  0.18760021  0.95598256     0.38130
O549        O  0.03561407  0.59579013  0.70985025    -0.81820
O550        O  0.02345755  0.87083443  0.72114245    -0.66510
O551        O  0.01292788  0.70697433  0.75154868    -1.13110
C552        C  0.43236891  0.76751448  0.00294613     1.05070
O553        O  0.47448558  0.90344342  0.73758170    -0.79720
O554        O  0.43409111  0.82822594  0.75999037    -0.67300
Ni555      Ni  0.04855487  0.63870720  0.75065690     1.34870
C556        C  0.43037260  0.77319175  0.76815689     0.83800
O557        O  0.05329530  0.77827482  0.76949965    -0.80260
O558        O  0.06519425  0.67676520  0.78992671    -0.90530
C559        C  0.99905877  0.91305325  0.71843294     0.83370
O560        O  0.07563370  0.67123597  0.71139790    -0.68740
O561        O  0.42896897  0.82149593  0.01549504    -0.88020
C562        C  0.07208941  0.72203589  0.02359345     0.84200
C563        C  0.06969910  0.73190559  0.78841599     1.05770
H564        H  0.49512077  0.79975549  0.01005474     0.37580
O565        O  0.48704259  0.79482303  0.70433915    -1.10680
O566        O  0.44918830  0.72554462  0.75360171    -0.67340
Ni567      Ni  0.48407539  0.71171653  0.71316058     1.26350
O568        O  0.04713025  0.76303502  0.69209681    -0.67560
O569        O  0.45513689  0.72139425  0.00830651    -0.79860
C570        C  0.50906483  0.58855355  0.70487270     0.83590
O571        O  0.48492789  0.62530747  0.71969765    -0.67030
Ni572      Ni  0.45185268  0.86117179  0.71071234     1.27450
Ni573      Ni  0.01935724  0.78823574  0.73776380     1.26060
H574        H  0.00228454  0.70686890  0.77816838     0.38130
O575        O  0.28437651  0.08310604  0.71797257    -0.81820
O576        O  0.27395370  0.35596292  0.71554072    -0.66510
O577        O  0.26298493  0.19649789  0.75677902    -1.13110
C578        C  0.17872406  0.25100477  0.01591654     1.05070
O579        O  0.22588632  0.39262374  0.73737165    -0.79720
O580        O  0.18691007  0.31664468  0.76994333    -0.67300
Ni581      Ni  0.29775713  0.12761885  0.75727389     1.34870
C582        C  0.18271861  0.26204055  0.77922528     0.83800
O583        O  0.30516703  0.26799434  0.76738908    -0.80260
O584        O  0.31418465  0.16967449  0.79447622    -0.90530
C585        C  0.24967485  0.39915605  0.71479050     0.83370
O586        O  0.32520931  0.15559485  0.71653993    -0.68740
O587        O  0.17571538  0.30465205  0.02873850    -0.88020
C588        C  0.32190408  0.20342812  0.02597496     0.84200
C589        C  0.32048829  0.22340941  0.78895201     1.05770
H590        H  0.24288172  0.28127765  0.01398869     0.37580
O591        O  0.23593201  0.27991117  0.70874596    -1.10680
O592        O  0.19964617  0.21411328  0.76290669    -0.67340
Ni593      Ni  0.23296748  0.19800706  0.72084157     1.26350
O594        O  0.29671747  0.24400381  0.69248435    -0.67560
O595        O  0.20244386  0.20590943  0.01842729    -0.79860
C596        C  0.25777632  0.07590468  0.71354839     0.83590
O597        O  0.23410274  0.11193687  0.73007241    -0.67030
Ni598      Ni  0.20103540  0.34676666  0.71745368     1.27450
Ni599      Ni  0.27000584  0.27565747  0.73806598     1.26060
H600        H  0.25300907  0.19980226  0.78376007     0.38130
C601        C  0.34779889  0.23475029  0.80590623    -0.07050
C602        C  0.34965955  0.29663152  0.80913139    -0.18180
C603        C  0.37552411  0.31097754  0.82199236     0.10140
C604        C  0.40127673  0.26256332  0.83106539    -0.06980
C605        C  0.39939587  0.20079610  0.82741837    -0.18210
C606        C  0.37347469  0.18640034  0.81521299     0.10170
S607        S  0.37333228  0.39197292  0.82731147    -0.33180
S608        S  0.37556812  0.10488590  0.81160541    -0.33190
H609        H  0.36770195  0.11218480  0.77218937     0.28180
H610        H  0.37871273  0.38267845  0.86784213     0.28180
H611        H  0.33048487  0.33466651  0.80209063     0.18770
H612        H  0.41845353  0.16239170  0.83428630     0.18780
C613        C  0.09627386  0.23208881  0.83794942    -0.07050
C614        C  0.12356640  0.18549745  0.84055934    -0.18180
C615        C  0.15236753  0.19578917  0.82523051     0.10140
C616        C  0.15456077  0.25383270  0.80542216    -0.06980
C617        C  0.12727898  0.30070652  0.80313515    -0.18210
C618        C  0.09844808  0.29046961  0.81872168     0.10170
S619        S  0.18552807  0.13324333  0.83328644    -0.33180
S620        S  0.06518317  0.35297843  0.81126013    -0.33190
H621        H  0.04560886  0.31380198  0.80738188     0.28180
H622        H  0.20509908  0.17255396  0.83690896     0.28180
H623        H  0.12272040  0.14129932  0.85651843     0.18770
H624        H  0.12810286  0.34478755  0.78701495     0.18780
C625        C  0.34946282  0.21663192  0.00215737    -0.07050
C626        C  0.37804352  0.19047536  0.68347054    -0.18180
C627        C  0.40413565  0.21173044  0.00226517     0.10140
C628        C  0.40196415  0.25975780  0.97168791    -0.06980
C629        C  0.37355264  0.28539729  0.95677450    -0.18210
C630        C  0.34769512  0.26329802  0.97072048     0.10170
S631        S  0.43912679  0.17624241  0.69134523    -0.33180
S632        S  0.31410138  0.29362483  0.94480523    -0.33190
H633        H  0.30411964  0.23792451  0.94947447     0.28180
H634        H  0.45055537  0.23026353  0.68666911     0.28180
H635        H  0.37998417  0.15506138  0.70779574     0.18770
H636        H  0.37185077  0.32001333  0.93190004     0.18780
C637        C  0.15167906  0.24071295  0.00101995    -0.07050
C638        C  0.12311137  0.26688197  0.02181276    -0.18180
C639        C  0.09604543  0.25757526  0.01079006     0.10140
C640        C  0.09762818  0.22108414  0.97827292    -0.06980
C641        C  0.12632025  0.19430025  0.95779931    -0.18210
C642        C  0.15330709  0.20481938  0.96833523     0.10170
S643        S  0.06069344  0.29221397  0.03990152    -0.33180
S644        S  0.18845667  0.17571800  0.93719077    -0.33190
H645        H  0.20103216  0.22692091  0.94033725     0.28180
H646        H  0.04674449  0.24276642  0.03733585     0.27980
H647        H  0.12187005  0.29400616  0.04741399     0.18770
H648        H  0.12766094  0.16772038  0.93192434     0.18780
C649        C  0.49909117  0.03466868  0.94463812    -0.07050
C650        C  0.02438298  0.02058640  0.96732433    -0.18180
C651        C  0.02391418  0.98557220  0.67065694     0.10140
C652        C  0.99816920  0.96128335  0.68474719    -0.06980
C653        C  0.47279330  0.97564077  0.99558491    -0.18210
C654        C  0.47300476  0.01158028  0.95924642     0.10170
S655        S  0.05602492  0.97687503  0.69941582    -0.33180
S656        S  0.43952181  0.02479356  0.93241845    -0.33190
H657        H  0.45554526  0.02682596  0.89407821     0.28180
H658        H  0.03901023  0.97430250  0.73703960     0.28180
H659        H  0.04410981  0.03976810  0.62423474     0.18770
H660        H  0.45301337  0.95668693  0.00546059     0.18780
C661        C  0.50606531  0.53982736  0.67876416    -0.07050
C662        C  0.48392370  0.50523699  0.69060399    -0.18180
C663        C  0.47998396  0.45925724  0.66694328     0.10140
C664        C  0.99796225  0.44812060  0.96302331    -0.06980
C665        C  0.02021959  0.48229503  0.95133995    -0.18210
C666        C  0.02396713  0.52856186  0.97480956     0.10170
S667        S  0.45269734  0.41435463  0.68702439    -0.33180
S668        S  0.05023295  0.57478843  0.95362041    -0.33190
H669        H  0.03192790  0.63149235  0.96727892     0.28180
H670        H  0.47038586  0.35753716  0.67274378     0.28180
H671        H  0.46997803  0.51317091  0.71898511     0.18770
H672        H  0.03400912  0.47464077  0.92282163     0.18780
C673        C  0.34716177  0.73697909  0.83571947    -0.07050
C674        C  0.34695336  0.79518933  0.81543043    -0.18180
C675        C  0.37347617  0.80866384  0.79417808     0.10140
C676        C  0.40190889  0.76348899  0.79321738    -0.06980
C677        C  0.40206788  0.70482461  0.81289360    -0.18210
C678        C  0.37548319  0.69139097  0.83430018     0.10170
S679        S  0.36864437  0.88353102  0.76721048    -0.33180
S680        S  0.38005556  0.61633905  0.86096559    -0.33190
H681        H  0.36919009  0.64189030  0.89812871     0.28180
H682        H  0.37976762  0.85746376  0.73027451     0.28180
H683        H  0.32572855  0.83100117  0.81597202     0.18770
H684        H  0.42332107  0.66909408  0.81220646     0.18780
C685        C  0.09705733  0.74262041  0.80557662    -0.07050
C686        C  0.11246107  0.78588458  0.78468429    -0.18180
C687        C  0.14024247  0.79414857  0.79561052     0.10140
C688        C  0.15327511  0.75966292  0.82923125    -0.06980
C689        C  0.13792085  0.71614673  0.85001621    -0.18210
C690        C  0.11023861  0.70755627  0.83885587     0.10170
S691        S  0.15850087  0.84709004  0.76389020    -0.33180
S692        S  0.09227736  0.65332929  0.86967550    -0.33190
H693        H  0.06206963  0.68860612  0.86658422     0.28180
H694        H  0.18847567  0.81013839  0.76628632     0.28180
H695        H  0.10343873  0.81203362  0.75831316     0.18770
H696        H  0.14690459  0.68993475  0.87637742     0.18780
C697        C  0.34565009  0.75752534  0.97569935    -0.07050
C698        C  0.36022677  0.80042920  0.95362016    -0.18180
C699        C  0.39034810  0.80034125  0.95868741     0.10140
C700        C  0.40590494  0.75711603  0.98680405    -0.06980
C701        C  0.39126823  0.71434711  0.67561308    -0.18210
C702        C  0.36111445  0.71468752  0.67074439     0.10170
S703        S  0.40799334  0.85534996  0.92799802    -0.33180
S704        S  0.34329557  0.66050280  0.70208514    -0.33190
H705        H  0.31288770  0.69524260  0.69984774     0.28180
H706        H  0.43845848  0.82099068  0.93027140     0.28180
H707        H  0.34876324  0.83158342  0.93059568     0.18770
H708        H  0.40268661  0.68323330  0.69869968     0.18780
C709        C  0.15240836  0.77556950  0.96804712    -0.07050
C710        C  0.15191918  0.71228719  0.97220941    -0.18180
C711        C  0.12545966  0.69326720  0.65400816     0.10140
C712        C  0.09879923  0.73835099  0.99983122    -0.06980
C713        C  0.09944754  0.80179124  0.99593034    -0.18210
C714        C  0.12600942  0.82066540  0.98071029     0.10170
S715        S  0.12708144  0.61131398  0.65456325    -0.33180
S716        S  0.12530890  0.90230430  0.97983171    -0.33190
H717        H  0.15611703  0.89289721  0.98756182     0.28180
H718        H  0.09684258  0.62093471  0.64505064     0.28180
H719        H  0.17183618  0.67722658  0.62823935     0.18770
H720        H  0.07958741  0.83703030  0.00660700     0.18780
C721        C  0.24534700  0.96201823  0.95403992    -0.07050
C722        C  0.27450602  0.95486827  0.96736247    -0.18180
C723        C  0.27901367  0.98771923  0.66564379     0.10140
C724        C  0.25402969  0.03161879  0.68429554    -0.06980
C725        C  0.22480593  0.03833148  0.00458483    -0.18210
C726        C  0.22019428  0.00474020  0.97339781     0.10170
S727        S  0.31714651  0.96878331  0.68142778    -0.33180
S728        S  0.18153807  0.02004487  0.95968223    -0.33190
H729        H  0.19055805  0.02689765  0.91845173     0.28180
H730        H  0.30679102  0.96659798  0.72245752     0.28180
H731        H  0.29407947  0.92149264  0.95402965     0.18770
H732        H  0.20522287  0.07162053  0.68467547     0.18780
C733        C  0.24860953  0.54803792  0.95702667    -0.07050
C734        C  0.24909409  0.48861725  0.94643245    -0.18180
C735        C  0.24716336  0.44085846  0.97572014     0.10140
C736        C  0.24780762  0.45042579  0.68328403    -0.06980
C737        C  0.24691882  0.51014696  0.69400148    -0.18210
C738        C  0.24629857  0.55952377  0.99817127     0.10170
S739        S  0.23947088  0.37252772  0.95899288    -0.33180
S740        S  0.24225087  0.63651362  0.68107182    -0.33190
H741        H  0.23903288  0.62157224  0.05583477     0.28180
H742        H  0.21265519  0.37741148  0.98559696     0.28180
H743        H  0.24915022  0.48031960  0.91523575     0.18770
H744        H  0.24650748  0.51798505  0.72529897     0.18780
O745        O  0.77388803  0.60219569  0.23754598    -0.81820
O746        O  0.76570004  0.88392984  0.24013227    -0.66510
O747        O  0.76369616  0.71654801  0.26314067    -1.13110
C748        C  0.68034713  0.77163118  0.17993283     1.05070
O749        O  0.71539691  0.91148535  0.25238446    -0.79720
O750        O  0.67441212  0.83884130  0.25254433    -0.67300
Ni751      Ni  0.79810976  0.64861061  0.25850698     1.34870
C752        C  0.67870258  0.79180963  0.27703840     0.83800
O753        O  0.79637397  0.79218546  0.28727788    -0.80260
O754        O  0.82240656  0.69163313  0.28212228    -0.90530
C755        C  0.74188605  0.91904036  0.25710712     0.83370
O756        O  0.81459345  0.67563990  0.20645292    -0.68740
O757        O  0.68600133  0.82598753  0.17491108    -0.88020
C758        C  0.81901814  0.72971445  0.19583816     0.84200
C759        C  0.81921570  0.74647436  0.29317764     1.05770
H760        H  0.74788754  0.79525062  0.18645354     0.37580
O761        O  0.73759795  0.79882165  0.21326864    -1.10680
O762        O  0.70434042  0.75357205  0.27768441    -0.67340
Ni763      Ni  0.73030998  0.72035934  0.23243978     1.26350
O764        O  0.80122724  0.77923918  0.20950284    -0.67560
O765        O  0.69542628  0.72779236  0.20228983    -0.79860
C766        C  0.74896168  0.59770859  0.25831571     0.83590
O767        O  0.72524312  0.64143820  0.25531484    -0.67030
Ni768      Ni  0.70232927  0.86748186  0.21253888     1.27450
Ni769      Ni  0.76692111  0.79808454  0.25022271     1.26060
H770        H  0.75644462  0.71640447  0.29107294     0.38130
O771        O  0.52292957  0.09116574  0.22415479    -0.81820
O772        O  0.51777266  0.36385981  0.25402898    -0.66510
O773        O  0.51322294  0.19551598  0.26174338    -1.13110
C774        C  0.92870577  0.27207395  0.18225062     1.05070
O775        O  0.96721637  0.39773524  0.26364314    -0.79720
O776        O  0.92628171  0.32638091  0.26218753    -0.67300
Ni777      Ni  0.54781114  0.12902452  0.25049118     1.34870
C778        C  0.92907463  0.27370668  0.28108225     0.83800
O779        O  0.54733482  0.26118586  0.29357953    -0.80260
O780        O  0.57303620  0.16368886  0.27848196    -0.90530
C781        C  0.49415329  0.40143275  0.26938214     0.83370
O782        O  0.56358109  0.16675556  0.20145496    -0.68740
O783        O  0.93378241  0.32640098  0.18267759    -0.88020
C784        C  0.56792274  0.22177595  0.19599902     0.84200
C785        C  0.57049134  0.21463522  0.29472768     1.05770
H786        H  0.99755064  0.29165851  0.19204193     0.37580
O787        O  0.98732432  0.28957634  0.21880876    -1.10680
O788        O  0.95275138  0.22980903  0.27613244    -0.67340
Ni789      Ni  0.97990136  0.20846798  0.22928521     1.26350
O790        O  0.55093237  0.26735997  0.21466810    -0.67560
O791        O  0.94551832  0.22382236  0.19864404    -0.79860
C792        C  0.99841074  0.08256589  0.24408739     0.83590
O793        O  0.97448859  0.12608370  0.24253253    -0.67030
Ni794      Ni  0.95251632  0.35944285  0.22232332     1.27450
Ni795      Ni  0.51721844  0.27810867  0.25657380     1.26060
H796        H  0.50574818  0.18752272  0.28929838     0.38130
O797        O  0.53560877  0.59579349  0.04318905    -0.81820
O798        O  0.52345479  0.87083663  0.05449634    -0.66510
O799        O  0.51292717  0.70697268  0.08489372    -1.13110
C800        C  0.93237358  0.76749335  0.33626276     1.05070
O801        O  0.97448371  0.90343980  0.07094343    -0.79720
O802        O  0.93408793  0.82822354  0.09334477    -0.67300
Ni803      Ni  0.54855376  0.63870457  0.08399579     1.34870
C804        C  0.93037046  0.77318829  0.10150900     0.83800
O805        O  0.55329427  0.77827056  0.10284722    -0.80260
O806        O  0.56519741  0.67675696  0.12326463    -0.90530
C807        C  0.49905540  0.91305612  0.05179409     0.83370
O808        O  0.57563041  0.67123576  0.04473515    -0.68740
O809        O  0.92897154  0.82147669  0.34880960    -0.88020
C810        C  0.57209028  0.72202739  0.35691938     0.84200
C811        C  0.56970046  0.73189856  0.12175815     1.05770
H812        H  0.99512362  0.79974251  0.34336989     0.37580
O813        O  0.98703964  0.79482776  0.03769000    -1.10680
O814        O  0.94918700  0.72554367  0.08695251    -0.67340
Ni815      Ni  0.98407189  0.71172139  0.04650845     1.26350
O816        O  0.54712930  0.76304364  0.02544379    -0.67560
O817        O  0.95514294  0.72137675  0.34162398    -0.79860
C818        C  0.00905837  0.58856184  0.03821264     0.83590
O819        O  0.98492319  0.62531369  0.05304299    -0.67030
Ni820      Ni  0.95184992  0.86117617  0.04406933     1.27450
Ni821      Ni  0.51935584  0.78823556  0.07111276     1.26060
H822        H  0.50228537  0.70686351  0.11151421     0.38130
O823        O  0.78438275  0.08307230  0.05129725    -0.81820
O824        O  0.77398432  0.35591468  0.04885169    -0.66510
O825        O  0.76300324  0.19646487  0.09009981    -1.13110
C826        C  0.67871881  0.25100039  0.34926176     1.05070
O827        O  0.72592165  0.39259336  0.07069861    -0.79720
O828        O  0.68693625  0.31663195  0.10327937    -0.67300
Ni829      Ni  0.79777156  0.12757782  0.09059427     1.34870
C830        C  0.68274371  0.26202926  0.11256546     0.83800
O831        O  0.80519755  0.26794108  0.10069445    -0.80260
O832        O  0.81420668  0.16962823  0.12779214    -0.90530
C833        C  0.74970924  0.39911861  0.04811197     0.83370
O834        O  0.82522456  0.15554319  0.04985651    -0.68740
O835        O  0.67570572  0.30464861  0.36208424    -0.88020
C836        C  0.82189817  0.20346977  0.35932051     0.84200
C837        C  0.82051538  0.22335830  0.12226206     1.05770
H838        H  0.74287400  0.28129786  0.34733821     0.37580
O839        O  0.73594933  0.27988440  0.04207194    -1.10680
O840        O  0.69966446  0.21410007  0.09624203    -0.67340
Ni841      Ni  0.73297879  0.19798539  0.05416932     1.26350
O842        O  0.79673181  0.24394855  0.02579317    -0.67560
O843        O  0.70244236  0.20591366  0.35176895    -0.79860
C844        C  0.75778035  0.07588054  0.04687532     0.83590
O845        O  0.73410886  0.11191750  0.06340058    -0.67030
Ni846      Ni  0.70105970  0.34675112  0.05078711     1.27450
Ni847      Ni  0.77003044  0.27561625  0.07138051     1.26060
H848        H  0.75303042  0.19977538  0.11708202     0.38130
C849        C  0.84782686  0.23469798  0.13921521    -0.07050
C850        C  0.84968968  0.29657959  0.14243400    -0.18180
C851        C  0.87555353  0.31092648  0.15529632     0.10140
C852        C  0.90130548  0.26251325  0.16437350    -0.06980
C853        C  0.89942250  0.20074482  0.16073184    -0.18210
C854        C  0.87350014  0.18634774  0.14852998     0.10170
S855        S  0.87336061  0.39192199  0.16061460    -0.33180
S856        S  0.87558599  0.10482989  0.14494828    -0.33190
H857        H  0.86771403  0.11209493  0.10553581     0.28180
H858        H  0.87870798  0.38262975  0.20115722     0.28180
H859        H  0.83051629  0.33461485  0.13538918     0.18770
H860        H  0.91847764  0.16233902  0.16760597     0.18780
C861        C  0.59631223  0.23206014  0.17131879    -0.07050
C862        C  0.62360907  0.18548138  0.17393190    -0.18180
C863        C  0.65240665  0.19578265  0.15859495     0.10140
C864        C  0.65459198  0.25382324  0.13877614    -0.06980
C865        C  0.62730673  0.30068787  0.13649081    -0.18210
C866        C  0.59847906  0.29044127  0.15208504     0.10170
S867        S  0.68557335  0.13325087  0.16664954    -0.33180
S868        S  0.56520855  0.35293505  0.14462150    -0.33190
H869        H  0.54564260  0.31374369  0.14073801     0.28180
H870        H  0.70514191  0.17257456  0.17025311     0.28180
H871        H  0.62276888  0.14128403  0.18989578     0.18770
H872        H  0.62812510  0.34476647  0.12036382     0.18780
C873        C  0.84945838  0.21666961  0.33549689    -0.07050
C874        C  0.87804216  0.19059295  0.01686024    -0.18180
C875        C  0.90415980  0.21155301  0.33553864     0.10140
C876        C  0.90199324  0.25969540  0.30503621    -0.06980
C877        C  0.87356820  0.28550795  0.29020011    -0.18210
C878        C  0.84769401  0.26346228  0.30413695     0.10170
S879        S  0.93909321  0.17664099  0.02481739    -0.33180
S880        S  0.81408108  0.29403540  0.27829856    -0.33190
H881        H  0.80407892  0.23835908  0.28282516     0.28180
H882        H  0.95047846  0.23071589  0.02005127     0.28180
H883        H  0.87998067  0.15528961  0.04125096     0.18770
H884        H  0.87186322  0.32022659  0.26538384     0.18780
C885        C  0.65167473  0.24069199  0.33437243    -0.07050
C886        C  0.62310602  0.26686851  0.35516058    -0.18180
C887        C  0.59604214  0.25753347  0.34415001     0.10140
C888        C  0.59762827  0.22100378  0.31165128    -0.06980
C889        C  0.62632170  0.19420880  0.29118510    -0.18210
C890        C  0.65330579  0.20475907  0.30170659     0.10170
S891        S  0.56068827  0.29219219  0.37325068    -0.33180
S892        S  0.68845519  0.17564812  0.27056430    -0.33190
H893        H  0.70102113  0.22687372  0.27368100     0.28180
H894        H  0.54673946  0.24273958  0.37070057     0.27980
H895        H  0.62186209  0.29402120  0.38074883     0.18770
H896        H  0.62766544  0.16760130  0.26532221     0.18780
C897        C  0.99912301  0.03461824  0.27791927    -0.07050
C898        C  0.52440432  0.02055850  0.30062364    -0.18180
C899        C  0.52390799  0.98558074  0.00401741     0.10140
C900        C  0.49816207  0.96129828  0.01811490    -0.06980
C901        C  0.97281415  0.97560030  0.32885988    -0.18210
C902        C  0.97303655  0.01152212  0.29251497     0.10170
S903        S  0.55602941  0.97685606  0.03276096    -0.33180
S904        S  0.93956801  0.02470170  0.26566225    -0.33190
H905        H  0.95560625  0.02672068  0.22733070     0.28180
H906        H  0.53902346  0.97427903  0.07039069     0.28180
H907        H  0.54409659  0.03979000  0.95759513     0.18770
H908        H  0.95303514  0.95663919  0.33872627     0.18780
C909        C  0.00605458  0.53984790  0.01209759    -0.07050
C910        C  0.98391162  0.50525932  0.02393386    -0.18180
C911        C  0.97996685  0.45929327  0.00026572     0.10140
C912        C  0.49798312  0.44807333  0.29636880    -0.06980
C913        C  0.52024013  0.48224861  0.28468497    -0.18210
C914        C  0.52398235  0.52852737  0.30814943     0.10170
S915        S  0.95268012  0.41438868  0.02034279    -0.33180
S916        S  0.55024876  0.57475227  0.28695908    -0.33190
H917        H  0.53194067  0.63145987  0.30060803     0.28180
H918        H  0.97036840  0.35757448  0.00605706     0.28180
H919        H  0.96996895  0.51318356  0.05231783     0.18770
H920        H  0.53403335  0.47458580  0.25616985     0.18780
C921        C  0.84715913  0.73696652  0.16906483    -0.07050
C922        C  0.84695048  0.79517748  0.14877676    -0.18180
C923        C  0.87347349  0.80865468  0.12752713     0.10140
C924        C  0.90190670  0.76348166  0.12656763    -0.06980
C925        C  0.90206591  0.70481574  0.14624202    -0.18210
C926        C  0.87548084  0.69137961  0.16764634     0.10170
S927        S  0.86864138  0.88352314  0.10056125    -0.33180
S928        S  0.88005264  0.61632657  0.19431006    -0.33190
H929        H  0.86918562  0.64187579  0.23147341     0.28180
H930        H  0.87976255  0.85745695  0.06362452     0.28180
H931        H  0.82572532  0.83098834  0.14931755     0.18770
H932        H  0.92331945  0.66908621  0.14555529     0.18780
C933        C  0.59705899  0.74261399  0.13891735    -0.07050
C934        C  0.61245872  0.78588668  0.11802754    -0.18180
C935        C  0.64023949  0.79415529  0.12895273     0.10140
C936        C  0.65327544  0.75966583  0.16257008    -0.06980
C937        C  0.63792521  0.71614076  0.18335231    -0.18210
C938        C  0.61024378  0.70754533  0.17219276     0.10170
S939        S  0.65849258  0.84710800  0.09723544    -0.33180
S940        S  0.59228825  0.65330574  0.20300844    -0.33190
H941        H  0.56207882  0.68857737  0.19992325     0.28180
H942        H  0.68846869  0.81015838  0.09962351     0.28180
H943        H  0.60343364  0.81203952  0.09165908     0.18770
H944        H  0.64691152  0.68992470  0.20971085     0.18780
C945        C  0.84565090  0.75750892  0.30903585    -0.07050
C946        C  0.86022859  0.80040352  0.28694757    -0.18180
C947        C  0.89035202  0.80030968  0.29200645     0.10140
C948        C  0.90590988  0.75708874  0.32012418    -0.06980
C949        C  0.89126336  0.71435923  0.00895846    -0.18210
C950        C  0.86111115  0.71469464  0.00408441     0.10170
S951        S  0.90799819  0.85530709  0.26130664    -0.33180
S952        S  0.84329289  0.66050359  0.03541981    -0.33190
H953        H  0.81288462  0.69523962  0.03317996     0.28180
H954        H  0.93846294  0.82094592  0.26358070     0.28180
H955        H  0.84876377  0.83155471  0.26392277     0.18770
H956        H  0.90268102  0.68324411  0.03204504     0.18780
C957        C  0.65240668  0.77557509  0.30138168    -0.07050
C958        C  0.65192301  0.71228995  0.30555279    -0.18180
C959        C  0.62545503  0.69326427  0.98734200     0.10140
C960        C  0.59879963  0.73834480  0.33315869    -0.06980
C961        C  0.59944208  0.80178807  0.32924892    -0.18210
C962        C  0.62600280  0.82066826  0.31403240     0.10170
S963        S  0.62707200  0.61131360  0.98789331    -0.33180
S964        S  0.62529405  0.90231199  0.31314262    -0.33190
H965        H  0.65609809  0.89291884  0.32088748     0.28180
H966        H  0.59683176  0.62094420  0.97838455     0.28180
H967        H  0.67183016  0.67721628  0.96156547     0.18770
H968        H  0.57957802  0.83702600  0.33991616     0.18780
C969        C  0.74534753  0.96201583  0.28738375    -0.07050
C970        C  0.77450981  0.95488968  0.30069131    -0.18180
C971        C  0.77901075  0.98767745  0.99898498     0.10140
C972        C  0.75403000  0.03160066  0.01762194    -0.06980
C973        C  0.72480608  0.03831250  0.33793936    -0.18210
C974        C  0.72019283  0.00471661  0.30675564     0.10170
S975        S  0.81713668  0.96870276  0.01479314    -0.33180
S976        S  0.68153093  0.01998589  0.29306515    -0.33190
H977        H  0.69053404  0.02687917  0.25183255     0.28180
H978        H  0.80676675  0.96655135  0.05581901     0.28180
H979        H  0.79408529  0.92152959  0.28734852     0.18770
H980        H  0.70522942  0.07165349  0.01797229     0.18780
C981        C  0.74859153  0.54804525  0.29037255    -0.07050
C982        C  0.74907304  0.48862435  0.27978161    -0.18180
C983        C  0.74713118  0.44087499  0.30907254     0.10140
C984        C  0.74784271  0.45039276  0.01660888    -0.06980
C985        C  0.74694557  0.51011586  0.02733089    -0.18210
C986        C  0.74626896  0.55954141  0.33151676     0.10170
S987        S  0.73940708  0.37256913  0.29235180    -0.33180
S988        S  0.74228217  0.63648302  0.01440746    -0.33190
H989        H  0.73892055  0.62162248  0.38917606     0.28180
H990        H  0.71260282  0.37746828  0.31897762     0.28180
H991        H  0.74913002  0.48032307  0.24858536     0.18770
H992        H  0.74653197  0.51794993  0.05862942     0.18780
O993        O  0.77388919  0.60220703  0.57086851    -0.81820
O994        O  0.76569868  0.88394497  0.57346250    -0.66510
O995        O  0.76369695  0.71656026  0.59646327    -1.13110
C996        C  0.68034383  0.77164909  0.51326085     1.05070
O997        O  0.71539552  0.91149592  0.58571708    -0.79720
O998        O  0.67441123  0.83885099  0.58587585    -0.67300
Ni999      Ni  0.79811102  0.64862382  0.59182793     1.34870
C1000       C  0.67870284  0.79181670  0.61036778     0.83800
O1001       O  0.79637513  0.79219647  0.62060257    -0.80260
O1002       O  0.82240843  0.69164576  0.61544256    -0.90530
C1003       C  0.74188448  0.91905238  0.59043950     0.83370
O1004       O  0.81459229  0.67565756  0.53977342    -0.68740
O1005       O  0.68599747  0.82600610  0.50824112    -0.88020
C1006       C  0.81901743  0.72973242  0.52916009     0.84200
C1007       C  0.81921735  0.74648553  0.62650036     1.05770
H1008       H  0.74788497  0.79526987  0.51977979     0.37580
O1009       O  0.73759632  0.79883768  0.54659550    -1.10680
O1010       O  0.70434089  0.75357917  0.61101098    -0.67340
Ni1011     Ni  0.73030954  0.72037291  0.56576392     1.26350
O1012       O  0.80122677  0.77925666  0.54282634    -0.67560
O1013       O  0.69542432  0.72780815  0.53561546    -0.79860
C1014       C  0.74896274  0.59771965  0.59163809     0.83590
O1015       O  0.72524407  0.64144915  0.58863682    -0.67030
Ni1016     Ni  0.70232673  0.86749653  0.54587013     1.27450
Ni1017     Ni  0.76692111  0.79809800  0.58354835     1.26060
H1018       H  0.75644588  0.71641585  0.62439570     0.38130
O1019       O  0.52291430  0.09116929  0.55749009    -0.81820
O1020       O  0.51776954  0.36385700  0.58736478    -0.66510
O1021       O  0.51321566  0.19551584  0.59507966    -1.13110
C1022       C  0.92869412  0.27208881  0.51559693     1.05070
O1023       O  0.96721370  0.39773635  0.59698378    -0.79720
O1024       O  0.92627601  0.32639001  0.59553088    -0.67300
Ni1025     Ni  0.54780156  0.12902312  0.58382020     1.34870
C1026       C  0.92906919  0.27371781  0.61442845     0.83800
O1027       O  0.54733233  0.26117794  0.62691062    -0.80260
O1028       O  0.57303224  0.16368341  0.61180485    -0.90530
C1029       C  0.49415148  0.40143134  0.60271972     0.83370
O1030       O  0.56356537  0.16675575  0.53478108    -0.68740
O1031       O  0.93377454  0.32641302  0.51602020    -0.88020
C1032       C  0.56791019  0.22177361  0.52932709     0.84200
C1033       C  0.57048897  0.21462674  0.62805359     1.05770
H1034       H  0.99754105  0.29165939  0.52538048     0.37580
O1035       O  0.98731621  0.28957931  0.55214830    -1.10680
O1036       O  0.95274577  0.22981987  0.60947888    -0.67340
Ni1037     Ni  0.97989032  0.20847398  0.56262776     1.26350
O1038       O  0.55092399  0.26735709  0.54800031    -0.67560
O1039       O  0.94550374  0.22383547  0.53199268    -0.79860
C1040       C  0.99839691  0.08257152  0.57742769     0.83590
O1041       O  0.97447520  0.12609173  0.57587763    -0.67030
Ni1042     Ni  0.95251057  0.35944966  0.55566512     1.27450
Ni1043     Ni  0.51721305  0.27810697  0.58990942     1.26060
H1044       H  0.50574358  0.18752122  0.62263558     0.38130
O1045       O  0.53561304  0.59578573  0.37652301    -0.81820
O1046       O  0.52345692  0.87083192  0.38780448    -0.66510
O1047       O  0.51292651  0.70697458  0.41821754    -1.13110
C1048       C  0.93237418  0.76750101  0.66959440     1.05070
O1049       O  0.97448465  0.90344665  0.40424190    -0.79720
O1050       O  0.93409090  0.82822632  0.42665689    -0.67300
Ni1051     Ni  0.54855375  0.63870759  0.41732788     1.34870
C1052       C  0.93037139  0.77319276  0.43482429     0.83800
O1053       O  0.55329397  0.77827836  0.43616462    -0.80260
O1054       O  0.56519368  0.67677053  0.45659536    -0.90530
C1055       C  0.49905898  0.91305242  0.38509352     0.83370
O1056       O  0.57563236  0.67123327  0.37806731    -0.68740
O1057       O  0.92897276  0.82148376  0.68214193    -0.88020
C1058       C  0.57209174  0.72203202  0.69025191     0.84200
C1059       C  0.56969809  0.73191170  0.45508248     1.05770
H1060       H  0.99512468  0.79974761  0.67670394     0.37580
O1061       O  0.98704153  0.79481973  0.37100530    -1.10680
O1062       O  0.94918668  0.72554451  0.42026969    -0.67340
Ni1063     Ni  0.98407444  0.71171337  0.37982930     1.26350
O1064       O  0.54712868  0.76302990  0.35876295    -0.67560
O1065       O  0.95514300  0.72138311  0.67495579    -0.79860
C1066       C  0.00906384  0.58855003  0.37154391     0.83590
O1067       O  0.98492687  0.62530423  0.38636854    -0.67030
Ni1068     Ni  0.95185165  0.86116893  0.37737664     1.27450
Ni1069     Ni  0.51935602  0.78823525  0.40442932     1.26060
H1070       H  0.50228295  0.70687144  0.44483718     0.38130
O1071       O  0.78438294  0.08309293  0.38463203    -0.81820
O1072       O  0.77396517  0.35594592  0.38220943    -0.66510
O1073       O  0.76299715  0.19647891  0.42344370    -1.13110
C1074       C  0.67871620  0.25100087  0.68258069     1.05070
O1075       O  0.72590021  0.39260603  0.40405081    -0.79720
O1076       O  0.68692524  0.31662876  0.43662561    -0.67300
Ni1077     Ni  0.79776843  0.12759838  0.42393217     1.34870
C1078       C  0.68273478  0.26202408  0.44590755     0.83800
O1079       O  0.80518226  0.26796936  0.43404989    -0.80260
O1080       O  0.81420021  0.16964715  0.46113351    -0.90530
C1081       C  0.74968642  0.39914018  0.38146543     0.83370
O1082       O  0.82521781  0.15557689  0.38319532    -0.68740
O1083       O  0.67570086  0.30465204  0.69539984    -0.88020
C1084       C  0.82189056  0.20348582  0.69266363     0.84200
C1085       C  0.82050409  0.22338177  0.45561030     1.05770
H1086       H  0.74286877  0.28130808  0.68066680     0.37580
O1087       O  0.73594000  0.27989933  0.37541879    -1.10680
O1088       O  0.69965890  0.21409853  0.42958356    -0.67340
Ni1089     Ni  0.73297489  0.19799545  0.38751188     1.26350
O1090       O  0.79672552  0.24399024  0.35914553    -0.67560
O1091       O  0.70244022  0.20591659  0.68509209    -0.79860
C1092       C  0.75778188  0.07589277  0.38021186     0.83590
O1093       O  0.73410945  0.11192472  0.39673881    -0.67030
Ni1094     Ni  0.70104502  0.34675617  0.38413508     1.27450
Ni1095     Ni  0.77001795  0.27563896  0.40473224     1.26060
H1096       H  0.75302406  0.19978103  0.45042617     0.38130
C1097       C  0.84781537  0.23471990  0.47256295    -0.07050
C1098       C  0.84967068  0.29660016  0.47580339    -0.18180
C1099       C  0.87553481  0.31094607  0.48866524     0.10140
C1100       C  0.90129338  0.26253369  0.49772035    -0.06980
C1101       C  0.89941782  0.20076734  0.49405664    -0.18210
C1102       C  0.87349598  0.18637100  0.48185396     0.10170
S1103       S  0.87333416  0.39193758  0.49401056    -0.33180
S1104       S  0.87559345  0.10485726  0.47823434    -0.33190
H1105       H  0.86770994  0.11216814  0.43882667     0.28180
H1106       H  0.87870629  0.38261388  0.53454381     0.28180
H1107       H  0.83049155  0.33463377  0.46877572     0.18770
H1108       H  0.91847918  0.16236326  0.50091202     0.18780
C1109       C  0.59629953  0.23205406  0.50464598    -0.07050
C1110       C  0.62359487  0.18547050  0.50725656    -0.18180
C1111       C  0.65239354  0.19576984  0.49192370     0.10140
C1112       C  0.65458127  0.25381362  0.47211187    -0.06980
C1113       C  0.62729718  0.30068174  0.46982734    -0.18210
C1114       C  0.59846855  0.29043689  0.48541724     0.10170
S1115       S  0.68555822  0.13323187  0.49997556    -0.33180
S1116       S  0.56519977  0.35293626  0.47795614    -0.33190
H1117       H  0.54563128  0.31375046  0.47407184     0.28180
H1118       H  0.70512758  0.17254983  0.50358885     0.28180
H1119       H  0.62275275  0.14127121  0.52321652     0.18770
H1120       H  0.62811731  0.34476292  0.45370497     0.18780
C1121       C  0.84945138  0.21668665  0.66884236    -0.07050
C1122       C  0.87805040  0.19046547  0.35012693    -0.18180
C1123       C  0.90415388  0.21156065  0.66888325     0.10140
C1124       C  0.90198790  0.25970891  0.63838451    -0.06980
C1125       C  0.87356222  0.28553123  0.62355272    -0.18210
C1126       C  0.84768745  0.26348708  0.63748718     0.10170
S1127       S  0.93913228  0.17624538  0.35800427    -0.33180
S1128       S  0.81407393  0.29407517  0.61165196    -0.33190
H1129       H  0.80407284  0.23839779  0.61616506     0.28180
H1130       H  0.95055901  0.23026882  0.35332358     0.28180
H1131       H  0.87999164  0.15505609  0.37445454     0.18770
H1132       H  0.87185682  0.32025669  0.59874071     0.18780
C1133       C  0.65167302  0.24068570  0.66769340    -0.07050
C1134       C  0.62310481  0.26685696  0.68848432    -0.18180
C1135       C  0.59604118  0.25751881  0.67747594     0.10140
C1136       C  0.59762682  0.22099211  0.64497592    -0.06980
C1137       C  0.62631987  0.19420000  0.62450761    -0.18210
C1138       C  0.65330404  0.20475256  0.63502770     0.10170
S1139       S  0.56068813  0.29217078  0.70658076    -0.33180
S1140       S  0.68845322  0.17564459  0.60388428    -0.33190
H1141       H  0.70101912  0.22686979  0.60700227     0.28180
H1142       H  0.54674097  0.24271580  0.70403041     0.27980
H1143       H  0.62186111  0.29400875  0.71407290     0.18770
H1144       H  0.62766303  0.16759378  0.59864428     0.18780
C1145       C  0.99911225  0.03462297  0.61125926    -0.07050
C1146       C  0.52439644  0.02056191  0.63395864    -0.18180
C1147       C  0.52391831  0.98557041  0.33732223     0.10140
C1148       C  0.49817229  0.96128228  0.35140803    -0.06980
C1149       C  0.97280816  0.97560302  0.66220396    -0.18210
C1150       C  0.97302674  0.01152682  0.62585963     0.10170
S1151       S  0.55602578  0.97687333  0.36608707    -0.33180
S1152       S  0.93955454  0.02470919  0.59901378    -0.33190
H1153       H  0.95558865  0.02673050  0.56067972     0.28180
H1154       H  0.53900777  0.97430047  0.40370845     0.28180
H1155       H  0.54411831  0.03976449  0.29090319     0.18770
H1156       H  0.95302953  0.95664246  0.67207394     0.18780
C1157       C  0.00606449  0.53982557  0.34543314    -0.07050
C1158       C  0.98392208  0.50523584  0.35726989    -0.18180
C1159       C  0.97998262  0.45925823  0.33360681     0.10140
C1160       C  0.49798339  0.44807100  0.62970483    -0.06980
C1161       C  0.52023990  0.48224633  0.61801807    -0.18210
C1162       C  0.52398241  0.52852728  0.64148024     0.10170
S1163       S  0.95269521  0.41435571  0.35368460    -0.33180
S1164       S  0.55024801  0.57475215  0.62028672    -0.33190
H1165       H  0.53194006  0.63146031  0.63393499     0.28180
H1166       H  0.97038430  0.35753858  0.33940418     0.28180
H1167       H  0.96997559  0.51316835  0.38565053     0.18770
H1168       H  0.53403215  0.47458222  0.58950237     0.18780
C1169       C  0.84715873  0.73698407  0.50238639    -0.07050
C1170       C  0.84695184  0.79519575  0.48209992    -0.18180
C1171       C  0.87347516  0.80866909  0.46084788     0.10140
C1172       C  0.90190711  0.76349159  0.45988497    -0.06980
C1173       C  0.90206452  0.70482597  0.47955882    -0.18210
C1174       C  0.87547926  0.69139344  0.50096486     0.10170
S1175       S  0.86864491  0.88353890  0.43388382    -0.33180
S1176       S  0.88004971  0.61633910  0.52762671    -0.33190
H1177       H  0.86918513  0.64188647  0.56479113     0.28180
H1178       H  0.87976842  0.85747613  0.39694650     0.28180
H1179       H  0.82572777  0.83100975  0.48264328     0.18770
H1180       H  0.92331694  0.66909320  0.47887010     0.18780
C1181       C  0.59705561  0.74263147  0.47224301    -0.07050
C1182       C  0.61245721  0.78590004  0.45135143    -0.18180
C1183       C  0.64023754  0.79416979  0.46227818     0.10140
C1184       C  0.65327148  0.75968506  0.49589833    -0.06980
C1185       C  0.63791901  0.71616538  0.51668285    -0.18210
C1186       C  0.61023780  0.70756969  0.50552236     0.10170
S1187       S  0.65849301  0.84711717  0.43055930    -0.33180
S1188       S  0.59227899  0.65333903  0.53634207    -0.33190
H1189       H  0.56207054  0.68861272  0.53325193     0.28180
H1190       H  0.68846871  0.81016859  0.43295292     0.28180
H1191       H  0.60343406  0.81204837  0.42498056     0.18770
H1192       H  0.64690350  0.68995392  0.54304379     0.18780
C1193       C  0.84565235  0.75751831  0.64236047    -0.07050
C1194       C  0.86023011  0.80041553  0.62027545    -0.18180
C1195       C  0.89035309  0.80032212  0.62533692     0.10140
C1196       C  0.90591049  0.75709880  0.65345397    -0.06980
C1197       C  0.89126774  0.71433955  0.34228654    -0.18210
C1198       C  0.86111348  0.71468048  0.33742046     0.10170
S1199       S  0.90799936  0.85532297  0.59464090    -0.33180
S1200       S  0.84329468  0.66049963  0.36876516    -0.33190
H1201       H  0.81288688  0.69523979  0.36652776     0.28180
H1202       H  0.93846412  0.82096173  0.59691480     0.28180
H1203       H  0.84876572  0.83156881  0.59725120     0.18770
H1204       H  0.90268659  0.68322789  0.36537368     0.18780
C1205       C  0.65240786  0.77558004  0.63471219    -0.07050
C1206       C  0.65192274  0.71229554  0.63887832    -0.18180
C1207       C  0.62545987  0.69326109  0.32068118     0.10140
C1208       C  0.59880107  0.73835053  0.66649169    -0.06980
C1209       C  0.59944517  0.80179292  0.66258727    -0.18210
C1210       C  0.62600583  0.82067257  0.64736953     0.10170
S1211       S  0.62708418  0.61130604  0.32124258    -0.33180
S1212       S  0.62529967  0.90231430  0.64648674    -0.33190
H1213       H  0.65610518  0.89291493  0.65422656     0.28180
H1214       H  0.59684670  0.62092027  0.31172607     0.28180
H1215       H  0.67183785  0.67722010  0.29491891     0.18770
H1216       H  0.57958253  0.83703000  0.67325944     0.18780
C1217       C  0.74534535  0.96202675  0.62071764    -0.07050
C1218       C  0.77450778  0.95490466  0.63402409    -0.18180
C1219       C  0.77901628  0.98770371  0.33231059     0.10140
C1220       C  0.75403326  0.03160759  0.35096029    -0.06980
C1221       C  0.72480244  0.03831889  0.67127589    -0.18210
C1222       C  0.72018986  0.00472317  0.64009171     0.10170
S1223       S  0.81714849  0.96876074  0.34809710    -0.33180
S1224       S  0.68152743  0.01998714  0.62640383    -0.33190
H1225       H  0.69052859  0.02688668  0.58517110     0.28180
H1226       H  0.80679145  0.96658246  0.38912649     0.28180
H1227       H  0.79408390  0.92154776  0.62067976     0.18770
H1228       H  0.70522738  0.07161787  0.35133746     0.18780
C1229       C  0.74859189  0.54805564  0.62369507    -0.07050
C1230       C  0.74906522  0.48863799  0.61310529    -0.18180
C1231       C  0.74712031  0.44089048  0.64239707     0.10140
C1232       C  0.74781526  0.45041177  0.34996001    -0.06980
C1233       C  0.74691766  0.51013683  0.36067878    -0.18210
C1234       C  0.74627453  0.55954976  0.66483908     0.10170
S1235       S  0.73939195  0.37258707  0.62567811    -0.33180
S1236       S  0.74223393  0.63650952  0.34774963    -0.33190
H1237       H  0.73894462  0.62162536  0.72249856     0.28180
H1238       H  0.71258930  0.37748863  0.65230683     0.28180
H1239       H  0.74911890  0.48033818  0.58190951     0.18770
H1240       H  0.74650308  0.51797644  0.39197666     0.18780
O1241       O  0.77389671  0.60220329  0.90419989    -0.81820
O1242       O  0.76569807  0.88393741  0.90678556    -0.66510
O1243       O  0.76369964  0.71655383  0.92979706    -1.13110
C1244       C  0.68034682  0.77162683  0.84659467     1.05070
O1245       O  0.71539523  0.91148520  0.91904559    -0.79720
O1246       O  0.67441242  0.83883570  0.91920867    -0.67300
Ni1247     Ni  0.79811556  0.64862045  0.92516304     1.34870
C1248       C  0.67870379  0.79180214  0.94370129     0.83800
O1249       O  0.79637608  0.79219804  0.95393083    -0.80260
O1250       O  0.82241024  0.69164629  0.94877963    -0.90530
C1251       C  0.74188449  0.91904467  0.92376342     0.83370
O1252       O  0.81459846  0.67565081  0.87310947    -0.68740
O1253       O  0.68599915  0.82598483  0.84157453    -0.88020
C1254       C  0.81902079  0.72972625  0.86249296     0.84200
C1255       C  0.81921778  0.74648854  0.95983410     1.05770
H1256       H  0.74788520  0.79525465  0.85311138     0.37580
O1257       O  0.73759699  0.79882357  0.87992724    -1.10680
O1258       O  0.70434150  0.75356267  0.94434468    -0.67340
Ni1259     Ni  0.73031256  0.72035783  0.89909862     1.26350
O1260       O  0.80122752  0.77925014  0.87615564    -0.67560
O1261       O  0.69542768  0.72778667  0.86894986    -0.79860
C1262       C  0.74897288  0.59770701  0.92497201     0.83590
O1263       O  0.72525137  0.64143128  0.92197406    -0.67030
Ni1264     Ni  0.70232696  0.86748054  0.87920122     1.27450
Ni1265     Ni  0.76692205  0.79809149  0.91687767     1.26060
H1266       H  0.75644782  0.71641220  0.95773036     0.38130
O1267       O  0.52288587  0.09121593  0.89086110    -0.81820
O1268       O  0.51774845  0.36393083  0.92066546    -0.66510
O1269       O  0.51320543  0.19558578  0.92842172    -1.13110
C1270       C  0.92867706  0.27212199  0.84894085     1.05070
O1271       O  0.96719148  0.39778113  0.93030480    -0.79720
O1272       O  0.92624169  0.32644780  0.92882854    -0.67300
Ni1273     Ni  0.54778708  0.12909257  0.91715502     1.34870
C1274       C  0.92904638  0.27379747  0.94775604     0.83800
O1275       O  0.54732856  0.26126799  0.96021861    -0.80260
O1276       O  0.57302972  0.16377505  0.94510770    -0.90530
C1277       C  0.49412929  0.40148998  0.93603234     0.83370
O1278       O  0.56353138  0.16681097  0.86809676    -0.68740
O1279       O  0.93377434  0.32643945  0.84932672    -0.88020
C1280       C  0.56788378  0.22182315  0.86263641     0.84200
C1281       C  0.57048812  0.21472037  0.96135430     1.05770
H1282       H  0.99752120  0.29167855  0.85870605     0.37580
O1283       O  0.98729908  0.28962260  0.88547695    -1.10680
O1284       O  0.95274325  0.22993403  0.94285244    -0.67340
Ni1285     Ni  0.97986846  0.20853027  0.89599210     1.26350
O1286       O  0.55090605  0.26741332  0.88131143    -0.67560
O1287       O  0.94546983  0.22388152  0.86537449    -0.79860
C1288       C  0.99837116  0.08263106  0.91081441     0.83590
O1289       O  0.97445087  0.12615955  0.90927859    -0.67030
Ni1290     Ni  0.95249503  0.35949471  0.88897895     1.27450
Ni1291     Ni  0.51720079  0.27817656  0.92322823     1.26060
H1292       H  0.50574239  0.18760046  0.95598264     0.38130
O1293       O  0.53561406  0.59579019  0.70985026    -0.81820
O1294       O  0.52345758  0.87083448  0.72114241    -0.66510
O1295       O  0.51292787  0.70697441  0.75154867    -1.13110
C1296       C  0.93236895  0.76751440  0.00294602     1.05070
O1297       O  0.97448555  0.90344334  0.73758175    -0.79720
O1298       O  0.93409109  0.82822582  0.75999040    -0.67300
Ni1299     Ni  0.54855485  0.63870726  0.75065692     1.34870
C1300       C  0.93037259  0.77319162  0.76815692     0.83800
O1301       O  0.55329530  0.77827487  0.76949965    -0.80260
O1302       O  0.56519422  0.67676526  0.78992674    -0.90530
C1303       C  0.49905880  0.91305331  0.71843289     0.83370
O1304       O  0.57563370  0.67123600  0.71139793    -0.68740
O1305       O  0.92896900  0.82149588  0.01549490    -0.88020
C1306       C  0.57208939  0.72203584  0.02359348     0.84200
C1307       C  0.56969909  0.73190564  0.78841601     1.05770
H1308       H  0.99512080  0.79975549  0.01005463     0.37580
O1309       O  0.98704258  0.79482296  0.70433918    -1.10680
O1310       O  0.94918830  0.72554450  0.75360175    -0.67340
Ni1311     Ni  0.98407539  0.71171645  0.71316060     1.26350
O1312       O  0.54713026  0.76303503  0.69209681    -0.67560
O1313       O  0.95513694  0.72139421  0.00830641    -0.79860
C1314       C  0.00906484  0.58855348  0.70487270     0.83590
O1315       O  0.98492790  0.62530739  0.71969766    -0.67030
Ni1316     Ni  0.95185267  0.86117170  0.71071238     1.27450
Ni1317     Ni  0.51935724  0.78823581  0.73776378     1.26060
H1318       H  0.50228453  0.70686900  0.77816837     0.38130
O1319       O  0.78437649  0.08310602  0.71797261    -0.81820
O1320       O  0.77395369  0.35596290  0.71554078    -0.66510
O1321       O  0.76298491  0.19649787  0.75677906    -1.13110
C1322       C  0.67872413  0.25100472  0.01591650     1.05070
O1323       O  0.72588631  0.39262371  0.73737169    -0.79720
O1324       O  0.68691002  0.31664468  0.76994332    -0.67300
Ni1325     Ni  0.79775712  0.12761882  0.75727393     1.34870
C1326       C  0.68271856  0.26204054  0.77922526     0.83800
O1327       O  0.80516702  0.26799431  0.76738914    -0.80260
O1328       O  0.81418464  0.16967446  0.79447626    -0.90530
C1329       C  0.74967484  0.39915603  0.71479055     0.83370
O1330       O  0.82520929  0.15559482  0.71653997    -0.68740
O1331       O  0.67571546  0.30465201  0.02873844    -0.88020
C1332       C  0.82190414  0.20342805  0.02597502     0.84200
C1333       C  0.82048828  0.22340938  0.78895206     1.05770
H1334       H  0.74288176  0.28127754  0.01398875     0.37580
O1335       O  0.73593200  0.27991115  0.70874600    -1.10680
O1336       O  0.69964614  0.21411328  0.76290670    -0.67340
Ni1337     Ni  0.73296747  0.19800705  0.72084159     1.26350
O1338       O  0.79671746  0.24400381  0.69248440    -0.67560
O1339       O  0.70244390  0.20590934  0.01842729    -0.79860
C1340       C  0.75777630  0.07590466  0.71354843     0.83590
O1341       O  0.73410272  0.11193686  0.73007243    -0.67030
Ni1342     Ni  0.70103539  0.34676666  0.71745369     1.27450
Ni1343     Ni  0.77000582  0.27565745  0.73806603     1.26060
H1344       H  0.75300904  0.19980223  0.78376011     0.38130
C1345       C  0.84779887  0.23475026  0.80590629    -0.07050
C1346       C  0.84965953  0.29663149  0.80913147    -0.18180
C1347       C  0.87552409  0.31097751  0.82199244     0.10140
C1348       C  0.90127673  0.26256330  0.83106543    -0.06980
C1349       C  0.89939587  0.20079608  0.82741839    -0.18210
C1350       C  0.87347468  0.18640031  0.81521303     0.10170
S1351       S  0.87333224  0.39197289  0.82731159    -0.33180
S1352       S  0.87556812  0.10488588  0.81160544    -0.33190
H1353       H  0.86770193  0.11218478  0.77218940     0.28180
H1354       H  0.87871264  0.38267837  0.86784227     0.28180
H1355       H  0.83048484  0.33466648  0.80209074     0.18770
H1356       H  0.91845354  0.16239168  0.83428629     0.18780
C1357       C  0.59627376  0.23208882  0.83794932    -0.07050
C1358       C  0.62356630  0.18549745  0.84055927    -0.18180
C1359       C  0.65236744  0.19578916  0.82523045     0.10140
C1360       C  0.65456070  0.25383269  0.80542209    -0.06980
C1361       C  0.62727890  0.30070650  0.80313505    -0.18210
C1362       C  0.59844800  0.29046960  0.81872156     0.10170
S1363       S  0.68552797  0.13324333  0.83328643    -0.33180
S1364       S  0.56518310  0.35297841  0.81125998    -0.33190
H1365       H  0.54560878  0.31380196  0.80738177     0.28180
H1366       H  0.70509898  0.17255397  0.83690898     0.28180
H1367       H  0.62272030  0.14129934  0.85651836     0.18770
H1368       H  0.62810279  0.34478752  0.78701485     0.18780
C1369       C  0.84946289  0.21663182  0.00215743    -0.07050
C1370       C  0.87804351  0.19047537  0.68347059    -0.18180
C1371       C  0.90413579  0.21172987  0.00226510     0.10140
C1372       C  0.90196429  0.25975755  0.97168804    -0.06980
C1373       C  0.87355275  0.28539742  0.95677481    -0.18210
C1374       C  0.84769520  0.26329820  0.97072072     0.10170
S1375       S  0.93912676  0.17624253  0.69134531    -0.33180
S1376       S  0.81410147  0.29362541  0.94480554    -0.33190
H1377       H  0.80411970  0.23792514  0.94947451     0.28180
H1378       H  0.95055533  0.23026367  0.68666914     0.28180
H1379       H  0.87998414  0.15506145  0.70779583     0.18770
H1380       H  0.87185087  0.32001371  0.93190049     0.18780
C1381       C  0.65167912  0.24071297  0.00101988    -0.07050
C1382       C  0.62311142  0.26688219  0.02181261    -0.18180
C1383       C  0.59604547  0.25757561  0.01078988     0.10140
C1384       C  0.59762819  0.22108441  0.97827279    -0.06980
C1385       C  0.62632027  0.19430034  0.95779924    -0.18210
C1386       C  0.65330713  0.20481933  0.96833520     0.10170
S1387       S  0.56069348  0.29221457  0.03990126    -0.33180
S1388       S  0.68845672  0.17571766  0.93719083    -0.33190
H1389       H  0.70103228  0.22692048  0.94033726     0.28180
H1390       H  0.54674450  0.24276702  0.03733573     0.27980
H1391       H  0.62187011  0.29400644  0.04741381     0.18770
H1392       H  0.62766095  0.16772040  0.93192430     0.18780
C1393       C  0.99909127  0.03466855  0.94463786    -0.07050
C1394       C  0.52438291  0.02058643  0.96732453    -0.18180
C1395       C  0.52391421  0.98557225  0.67065688     0.10140
C1396       C  0.49816924  0.96128339  0.68474713    -0.06980
C1397       C  0.97279337  0.97564065  0.99558463    -0.18210
C1398       C  0.97300488  0.01158011  0.95924611     0.10170
S1399       S  0.55602495  0.97687509  0.69941577    -0.33180
S1400       S  0.93952198  0.02479324  0.93241805    -0.33190
H1401       H  0.95554547  0.02682564  0.89407784     0.28180
H1402       H  0.53901026  0.97430256  0.73703955     0.28180
H1403       H  0.54410984  0.03976816  0.62423469     0.18770
H1404       H  0.95301346  0.95668678  0.00546027     0.18780
C1405       C  0.00606532  0.53982728  0.67876417    -0.07050
C1406       C  0.98392369  0.50523695  0.69060399    -0.18180
C1407       C  0.97998395  0.45925720  0.66694328     0.10140
C1408       C  0.49796215  0.44812073  0.96302323    -0.06980
C1409       C  0.52021956  0.48229502  0.95133995    -0.18210
C1410       C  0.52396713  0.52856179  0.97480958     0.10170
S1411       S  0.95269730  0.41435463  0.68702439    -0.33180
S1412       S  0.55023304  0.57478819  0.95362051    -0.33190
H1413       H  0.53192801  0.63149217  0.96727893     0.28180
H1414       H  0.97038583  0.35753715  0.67274381     0.28180
H1415       H  0.96997801  0.51317089  0.71898510     0.18770
H1416       H  0.53400914  0.47464068  0.92282166     0.18780
C1417       C  0.84716175  0.73697891  0.83571949    -0.07050
C1418       C  0.84695334  0.79518916  0.81543046    -0.18180
C1419       C  0.87347615  0.80866368  0.79417811     0.10140
C1420       C  0.90190888  0.76348883  0.79321740    -0.06980
C1421       C  0.90206786  0.70482444  0.81289360    -0.18210
C1422       C  0.87548317  0.69139079  0.83430018     0.10170
S1423       S  0.86864435  0.88353087  0.76721053    -0.33180
S1424       S  0.88005554  0.61633884  0.86096556    -0.33190
H1425       H  0.86919007  0.64189006  0.89812869     0.28180
H1426       H  0.87976760  0.85746363  0.73027455     0.28180
H1427       H  0.82572853  0.83100101  0.81597206     0.18770
H1428       H  0.92332106  0.66909391  0.81220645     0.18780
C1429       C  0.59705731  0.74262044  0.80557665    -0.07050
C1430       C  0.61246107  0.78588458  0.78468431    -0.18180
C1431       C  0.64024247  0.79414854  0.79561056     0.10140
C1432       C  0.65327509  0.75966292  0.82923131    -0.06980
C1433       C  0.63792081  0.71614677  0.85001628    -0.18210
C1434       C  0.61023856  0.70755632  0.83885592     0.10170
S1435       S  0.65850090  0.84708996  0.76389023    -0.33180
S1436       S  0.59227729  0.65332939  0.86967555    -0.33190
H1437       H  0.56206956  0.68860624  0.86658425     0.28180
H1438       H  0.68847569  0.81013827  0.76628638     0.28180
H1439       H  0.60343875  0.81203361  0.75831317     0.18770
H1440       H  0.64690453  0.68993480  0.87637750     0.18780
C1441       C  0.84565015  0.75752506  0.97569930    -0.07050
C1442       C  0.86022681  0.80042894  0.95362007    -0.18180
C1443       C  0.89034813  0.80034104  0.95868730     0.10140
C1444       C  0.90590499  0.75711588  0.98680395    -0.06980
C1445       C  0.89126822  0.71434705  0.67561312    -0.18210
C1446       C  0.86111443  0.71468749  0.67074443     0.10170
S1447       S  0.90799334  0.85534976  0.92799788    -0.33180
S1448       S  0.84329554  0.66050279  0.70208518    -0.33190
H1449       H  0.81288768  0.69524260  0.69984779     0.28180
H1450       H  0.93845850  0.82099055  0.93027126     0.28180
H1451       H  0.84876326  0.83158312  0.93059559     0.18770
H1452       H  0.90268659  0.68323324  0.69869971     0.18780
C1453       C  0.65240836  0.77556944  0.96804719    -0.07050
C1454       C  0.65191917  0.71228713  0.97220948    -0.18180
C1455       C  0.62545966  0.69326719  0.65400818     0.10140
C1456       C  0.59879921  0.73835094  0.99983125    -0.06980
C1457       C  0.59944752  0.80179119  0.99593038    -0.18210
C1458       C  0.62600941  0.82066534  0.98071034     0.10170
S1459       S  0.62708144  0.61131397  0.65456328    -0.33180
S1460       S  0.62530889  0.90230424  0.97983177    -0.33190
H1461       H  0.65611702  0.89289714  0.98756190     0.28180
H1462       H  0.59684256  0.62093470  0.64505069     0.28180
H1463       H  0.67183617  0.67722655  0.62823936     0.18770
H1464       H  0.57958739  0.83703025  0.00660702     0.18780
C1465       C  0.74534705  0.96201807  0.95403999    -0.07050
C1466       C  0.77450608  0.95486821  0.96736247    -0.18180
C1467       C  0.77901365  0.98771920  0.66564382     0.10140
C1468       C  0.75402967  0.03161877  0.68429557    -0.06980
C1469       C  0.72480598  0.03833127  0.00458494    -0.18210
C1470       C  0.72019432  0.00473998  0.97339794     0.10170
S1471       S  0.81714649  0.96878327  0.68142783    -0.33180
S1472       S  0.68153809  0.02004453  0.95968245    -0.33190
H1473       H  0.69055800  0.02689744  0.91845194     0.28180
H1474       H  0.80679099  0.96659795  0.72245757     0.28180
H1475       H  0.79407953  0.92149264  0.95402960     0.18770
H1476       H  0.70522285  0.07162051  0.68467550     0.18780
C1477       C  0.74860942  0.54803786  0.95702671    -0.07050
C1478       C  0.74909430  0.48861703  0.94643249    -0.18180
C1479       C  0.74716354  0.44085827  0.97572018     0.10140
C1480       C  0.74780761  0.45042577  0.68328408    -0.06980
C1481       C  0.74691885  0.51014692  0.69400151    -0.18210
C1482       C  0.74629809  0.55952390  0.99817133     0.10170
S1483       S  0.73947110  0.37252751  0.95899289    -0.33180
S1484       S  0.74225098  0.63651356  0.68107185    -0.33190
H1485       H  0.73903094  0.62157289  0.05583479     0.28180
H1486       H  0.71265537  0.37741128  0.98559689     0.28180
H1487       H  0.74915064  0.48031925  0.91523576     0.18770
H1488       H  0.74650753  0.51798501  0.72529901     0.18780
loop_ 
_geom_bond_atom_site_label_1 
_geom_bond_atom_site_label_2 
_geom_bond_distance 
_geom_bond_site_symmetry_2 
_ccdc_geom_bond_type 
O1           Ni7   1.904       .  S
O1           C22   1.273       .  A
O2          Ni25   1.895       .  S
O2           C11   1.269       .  A
O3           Ni7   1.883       .  S
O3          Ni25   1.861       .  S
O3          Ni19   1.911       .  S
O3           H26   0.960       .  S
C4           O21   1.284       .  A
C4           O13   1.286       .  A
C4          C192   1.506       .  S
O5          Ni24   1.954       .  S
O5           C11   1.278       .  A
O6          Ni24   1.910       .  S
O6            C8   1.264       .  A
Ni7          O10   1.900       .  S
Ni7          O12   1.928       .  S
C8           O18   1.257       .  A
C8          C213   1.462       .  S
O9          Ni25   1.907       .  S
O9           C15   1.278       .  A
O10          C15   1.274       .  A
C11         C225   1.504       .  S
O12          C14   1.278       .  A
O13         Ni24   1.942       .  S
C14          O20   1.278       .  A
C14         C177   1.501       .  S
C15         C201   1.446       .  S
H16          O17   0.967       .  S
O17         Ni25   1.922       .  S
O17         Ni19   1.895       .  S
O17         Ni24   1.916       .  S
O18         Ni19   1.895       .  S
Ni19         O23   1.906       .  S
Ni19         O21   1.942       .  S
O20         Ni25   1.932       .  S
C22          O23   1.264       .  A
C22         C237   1.477       .  S
O27         Ni33   1.896       .  S
O27         C792   1.271   1_455  A
O28         Ni51   1.904       .  S
O28          C37   1.268   1_455  A
O29         Ni33   1.893       .  S
O29         Ni51   1.877       .  S
O29        Ni789   1.917   1_455  S
O29          H52   0.967       .  S
C30          O47   1.276       .  A
C30          O39   1.283       .  A
C30         C108   1.507       .  S
O31         Ni50   1.954       .  S
O31         C781   1.277       .  A
O32         Ni50   1.903       .  S
O32          C34   1.267       .  A
Ni33         O36   1.897       .  S
Ni33         O38   1.927       .  S
C34          O44   1.263       .  A
C34         C132   1.466       .  S
O35         Ni51   1.904       .  S
O35          C41   1.278       .  A
O36          C41   1.274       .  A
C37         O775   1.277       .  A
C37         C168   1.491       .  S
O38          C40   1.278       .  A
O39         Ni50   1.948       .  S
C40          O46   1.274       .  A
C40         C117   1.497       .  S
C41         C144   1.454       .  S
H42          O43   0.966       .  S
O43         Ni45   1.907       .  S
O43         Ni50   1.918       .  S
O43        Ni795   1.923       .  S
O44         Ni45   1.899       .  S
Ni45         O49   1.911       .  S
Ni45         O47   1.913       .  S
Ni45        O773   1.917       .  S
O46         Ni51   1.933       .  S
C48          O49   1.263       .  A
C48         O771   1.271       .  A
C48         C153   1.489       .  S
Ni51        O787   1.923   1_455  S
O53         Ni59   1.961       .  S
O53         C818   1.280       .  A
O54         Ni77   1.916       .  S
O54          C63   1.266   1_455  A
O55         Ni59   1.919       .  S
O55         Ni77   1.906       .  S
O55        Ni815   1.924   1_455  S
O55          H78   0.966       .  S
C56          O73   1.278       .  A
C56          O65   1.274       .  A
C56         C204   1.446       .  S
O57         Ni76   1.895       .  S
O57         C807   1.270       .  A
O58         Ni76   1.922       .  S
O58          C60   1.276       .  A
Ni59         O62   1.945       .  S
Ni59         O64   1.909       .  S
C60          O70   1.277       .  A
C60         C180   1.501       .  S
O61         Ni77   1.932       .  S
O61          C67   1.280       .  A
O62          C67   1.285       .  A
C63         O801   1.270       .  A
C63         C156   1.489       .  S
O64         C562   1.266       .  A
O65        Ni324   1.900       .  S
C66         O312   1.266       .  A
C66         O320   1.262       .  A
C66         C216   1.469       .  S
C67         C189   1.503       .  S
H68         O317   0.967       .  S
O69         Ni71   1.878       .  S
O69         Ni76   1.888       .  S
O69        Ni821   1.920       .  S
O69         H564   0.967       .  S
O70         Ni71   1.938       .  S
Ni71         O75   1.903       .  S
Ni71        O569   1.906       .  S
Ni71        O799   1.924       .  S
O72         Ni77   1.898       .  S
O72         C562   1.262       .  A
O73        Ni319   1.906       .  S
C74          O75   1.268       .  A
C74         O797   1.280       .  A
C74         C165   1.495       .  S
Ni76        O561   1.900       .  S
Ni77        O813   1.920   1_455  S
O79         Ni85   1.954       .  S
O79         C100   1.277       .  A
O80        Ni103   1.916       .  S
O80          C89   1.268       .  A
O81         Ni85   1.904       .  S
O81        Ni103   1.902       .  S
O81         Ni97   1.917       .  S
O81         H104   0.966       .  S
C82          O99   1.279       .  A
C82          O91   1.273       .  A
C82         C141   1.449       .  S
O83        Ni102   1.900       .  S
O83          C89   1.271       .  A
O84        Ni102   1.929       .  S
O84          C86   1.279       .  A
Ni85         O88   1.942       .  S
Ni85         O90   1.905       .  S
C86          O96   1.274       .  A
C86         C120   1.498       .  S
O87        Ni103   1.935       .  S
O87          C93   1.283       .  A
O88          C93   1.286       .  A
C89         C240   1.481       .  S
O90         C588   1.266       .  A
O91        Ni350   1.895       .  S
C92         O338   1.266       .  A
C92         O346   1.265       .  A
C92         C129   1.475       .  S
C93         C105   1.503       .  S
H94         O343   0.962       .  S
O95        Ni103   1.906       .  S
O95         Ni97   1.862       .  S
O95        Ni102   1.894       .  S
O95         H590   0.962       .  S
O96         Ni97   1.928       .  S
Ni97        O101   1.898       .  S
Ni97        O595   1.906       .  S
O98        Ni103   1.908       .  S
O98         C588   1.265       .  A
O99        Ni345   1.905       .  S
C100        O101   1.268       .  A
C100        C228   1.504       .  S
Ni102       O587   1.895       .  S
C105        C106   1.411       .  A
C105        C110   1.418       .  A
C106        C107   1.408       .  A
C106        H115   1.084       .  S
C107        C108   1.419       .  A
C107        S111   1.800       .  S
C108        C109   1.411       .  A
C109        C110   1.402       .  A
C109        H116   1.083       .  S
C110        S112   1.803       .  S
S111        H114   1.407       .  S
S112        H113   1.404       .  S
C117        C118   1.407       .  A
C117        C122   1.418       .  A
C118        C119   1.405       .  A
C118        H127   1.084       .  S
C119        C120   1.418       .  A
C119        S123   1.804       .  S
C120        C121   1.409       .  A
C121        C122   1.408       .  A
C121        H128   1.084       .  S
C122        S124   1.803       .  S
S123        H126   1.407       .  S
S124        H125   1.407       .  S
C129        C134   1.411       .  A
C129        C378   1.408       .  A
C130        C625   1.408       .  A
C130        C627   1.393       .  A
C130        H139   1.081       .  S
C131        C132   1.411       .  A
C131        C378   1.393       .  A
C131        S383   1.805       .  S
C132        C133   1.403       .  A
C133        C134   1.390       .  A
C133        H140   1.084       .  S
C134        S136   1.798       .  S
S135        C627   1.805       .  S
S135        H138   1.407       .  S
S136        H137   1.407       .  S
C141        C142   1.407       .  A
C141        C146   1.401       .  A
C142        C143   1.386       .  A
C142        H151   1.084       .  S
C143        C144   1.405       .  A
C143        S147   1.804       .  S
C144        C145   1.410       .  A
C145        C146   1.387       .  A
C145        H152   1.084       .  S
C146        S148   1.804       .  S
S147        H150   1.407       .  S
S148        H149   1.407       .  S
C153        C158   1.416       .  A
C153        C898   1.408       .  A
C154        C897   1.408   1_455  A
C154        C403   1.404   1_545  A
C154        H411   1.083       .  S
C155        C156   1.413   1_455  A
C155        C650   1.404   1_564  A
C155        S159   1.803       .  S
C156       C1397   1.407   1_554  A
C157        C158   1.403   1_565  A
C157       C1148   1.407       .  A
C157        H164   1.083       .  S
C158        S160   1.805       .  S
S159        H162   1.407       .  S
S160        H161   1.407       .  S
H163        C650   1.083       .  S
C165        C166   1.405       .  A
C165       C1410   1.418   1_554  A
C166        C167   1.407       .  A
C166        H175   1.084       .  S
C167       C1408   1.418   1_554  A
C167        S171   1.804       .  S
C168        C169   1.402   1_655  A
C168       C1159   1.418       .  A
C169        C170   1.404       .  A
C169        H176   1.084       .  S
C170       C1157   1.418       .  A
C170        S172   1.798       .  S
S171        H174   1.407       .  S
S172        H173   1.407       .  S
C177        C178   1.407       .  A
C177        C182   1.421       .  A
C178        C179   1.403       .  A
C178        H187   1.084       .  S
C179        C180   1.420       .  A
C179        S183   1.800       .  S
C180        C181   1.408       .  A
C181        C182   1.407       .  A
C181        H188   1.084       .  S
C182        S184   1.800       .  S
S183        H186   1.405       .  S
S184        H185   1.406       .  S
C189        C190   1.412       .  A
C189        C194   1.415       .  A
C190        C191   1.407       .  A
C190        H199   1.084       .  S
C191        C192   1.417       .  A
C191        S195   1.802       .  S
C192        C193   1.413       .  A
C193        C194   1.408       .  A
C193        H200   1.084       .  S
C194        S196   1.801       .  S
S195        H198   1.407       .  S
S196        H197   1.407       .  S
C201        C202   1.400       .  A
C201        C454   1.409       .  A
C202        C203   1.390       .  A
C202        H211   1.085       .  S
C203        C204   1.409       .  A
C203        S207   1.804       .  S
C204        C453   1.400       .  A
C205        C206   1.389       .  A
C205        C700   1.400   1_554  A
C205        H212   1.085       .  S
C206        C697   1.409   1_554  A
C206        S208   1.805       .  S
S207        H210   1.407       .  S
S208        H209   1.407       .  S
C213        C214   1.405       .  A
C213        C218   1.404       .  A
C214        C463   1.389       .  A
C214        H471   1.082       .  S
C215        C710   1.389       .  A
C215        C712   1.410       .  A
C215        S219   1.801       .  S
C216        C217   1.410       .  A
C216        C463   1.410       .  A
C217        C218   1.392       .  A
C217        H224   1.083       .  S
C218        S220   1.803       .  S
S219        H222   1.401       .  S
S220        H221   1.408       .  S
H223        C710   1.082       .  S
C225        C226   1.410       .  A
C225        C230   1.420   1_565  A
C226        C475   1.405       .  A
C226        H235   1.083       .  S
C227        C228   1.420   1_566  A
C227        C722   1.405       .  A
C227        S231   1.803   1_556  S
C228        C725   1.410       .  A
C229        C230   1.405       .  A
C229        C476   1.410       .  A
C229        H484   1.083       .  S
C230        S232   1.803       .  S
S231        H234   1.408       .  S
S232        H233   1.408       .  S
H236        C725   1.083       .  S
C237        C238   1.391       .  A
C237        C242   1.421       .  A
C238        C239   1.396       .  A
C238        H247   1.084       .  S
C239        C488   1.420       .  A
C239        S243   1.788       .  S
C240        C241   1.395       .  A
C240        C735   1.420   1_554  A
C241        C738   1.405   1_554  A
C241        H248   1.083       .  S
C242        C489   1.405       .  A
C242        S492   1.800       .  S
S243        H246   1.405       .  S
S244        C738   1.800   1_554  S
S244        H741   1.407       .  S
H245        S492   1.407       .  S
O249       Ni255   1.904       .  S
O249        C270   1.273       .  A
O250       Ni273   1.895       .  S
O250        C259   1.269       .  A
O251       Ni255   1.883       .  S
O251       Ni273   1.861       .  S
O251       Ni267   1.911       .  S
O251        H274   0.960       .  S
C252        O269   1.284       .  A
C252        O261   1.286       .  A
C252        C440   1.506       .  S
O253       Ni272   1.954       .  S
O253        C259   1.278       .  A
O254       Ni272   1.910       .  S
O254        C256   1.264       .  A
Ni255       O258   1.900       .  S
Ni255       O260   1.928       .  S
C256        O266   1.257       .  A
C256        C461   1.462       .  S
O257       Ni273   1.907       .  S
O257        C263   1.278       .  A
O258        C263   1.274       .  A
C259        C473   1.504       .  S
O260        C262   1.278       .  A
O261       Ni272   1.942       .  S
C262        O268   1.278       .  A
C262        C425   1.501       .  S
C263        C449   1.446       .  S
H264        O265   0.967       .  S
O265       Ni273   1.922       .  S
O265       Ni267   1.895       .  S
O265       Ni272   1.916       .  S
O266       Ni267   1.895       .  S
Ni267       O271   1.906       .  S
Ni267       O269   1.942       .  S
O268       Ni273   1.932       .  S
C270        O271   1.264       .  A
C270        C485   1.477       .  S
O275       Ni281   1.896       .  S
O275       C1040   1.271   1_455  A
O276       Ni299   1.904       .  S
O276        C285   1.268   1_455  A
O277       Ni281   1.893       .  S
O277       Ni299   1.877       .  S
O277      Ni1037   1.917   1_455  S
O277        H300   0.967       .  S
C278        O295   1.276       .  A
C278        O287   1.283       .  A
C278        C356   1.507       .  S
O279       Ni298   1.954       .  S
O279       C1029   1.277       .  A
O280       Ni298   1.903       .  S
O280        C282   1.267       .  A
Ni281       O284   1.897       .  S
Ni281       O286   1.927       .  S
C282        O292   1.263       .  A
C282        C380   1.466       .  S
O283       Ni299   1.904       .  S
O283        C289   1.278       .  A
O284        C289   1.274       .  A
C285       O1023   1.277       .  A
C285        C416   1.491       .  S
O286        C288   1.278       .  A
O287       Ni298   1.948       .  S
C288        O294   1.274       .  A
C288        C365   1.497       .  S
C289        C392   1.454       .  S
H290        O291   0.966       .  S
O291      Ni1043   1.923       .  S
O291       Ni293   1.907       .  S
O291       Ni298   1.918       .  S
O292       Ni293   1.899       .  S
Ni293       O297   1.911       .  S
Ni293       O295   1.913       .  S
Ni293      O1021   1.917       .  S
O294       Ni299   1.933       .  S
C296       O1019   1.271       .  A
C296        O297   1.263       .  A
C296        C401   1.489       .  S
Ni299      O1035   1.923   1_455  S
O301       Ni307   1.961       .  S
O301       C1066   1.280       .  A
O302       Ni325   1.916       .  S
O302        C311   1.266   1_455  A
O303       Ni307   1.919       .  S
O303       Ni325   1.906       .  S
O303      Ni1063   1.924   1_455  S
O303        H326   0.966       .  S
C304        O321   1.278       .  A
C304        O313   1.274       .  A
C304        C452   1.446       .  S
O305       Ni324   1.895       .  S
O305       C1055   1.270       .  A
O306       Ni324   1.922       .  S
O306        C308   1.276       .  A
Ni307       O310   1.945       .  S
Ni307       O312   1.909       .  S
C308        O318   1.277       .  A
C308        C428   1.501       .  S
O309       Ni325   1.932       .  S
O309        C315   1.280       .  A
O310        C315   1.285       .  A
C311       O1049   1.270       .  A
C311        C404   1.489       .  S
O313       Ni572   1.900       .  S
C314        O560   1.266       .  A
C314        O568   1.262       .  A
C314        C464   1.469       .  S
C315        C437   1.503       .  S
H316        O565   0.967       .  S
O317      Ni1069   1.920       .  S
O317       Ni319   1.878       .  S
O317       Ni324   1.888       .  S
O318       Ni319   1.938       .  S
Ni319       O323   1.903       .  S
Ni319      O1047   1.924       .  S
O320       Ni325   1.898       .  S
O321       Ni567   1.906       .  S
C322       O1045   1.280       .  A
C322        O323   1.268       .  A
C322        C413   1.495       .  S
Ni325      O1061   1.920   1_455  S
O327       Ni333   1.954       .  S
O327        C348   1.277       .  A
O328       Ni351   1.916       .  S
O328        C337   1.268       .  A
O329       Ni333   1.904       .  S
O329       Ni351   1.902       .  S
O329       Ni345   1.917       .  S
O329        H352   0.966       .  S
C330        O347   1.279       .  A
C330        O339   1.273       .  A
C330        C389   1.449       .  S
O331       Ni350   1.900       .  S
O331        C337   1.271       .  A
O332       Ni350   1.929       .  S
O332        C334   1.279       .  A
Ni333       O336   1.942       .  S
Ni333       O338   1.905       .  S
C334        O344   1.274       .  A
C334        C368   1.498       .  S
O335       Ni351   1.935       .  S
O335        C341   1.283       .  A
O336        C341   1.286       .  A
C337        C488   1.481       .  S
O339       Ni598   1.895       .  S
C340        O586   1.266       .  A
C340        O594   1.265       .  A
C340        C377   1.475       .  S
C341        C353   1.503       .  S
H342        O591   0.962       .  S
O343       Ni351   1.906       .  S
O343       Ni345   1.862       .  S
O343       Ni350   1.894       .  S
O344       Ni345   1.928       .  S
Ni345       O349   1.898       .  S
O346       Ni351   1.908       .  S
O347       Ni593   1.905       .  S
C348        O349   1.268       .  A
C348        C476   1.504       .  S
C353        C354   1.411       .  A
C353        C358   1.418       .  A
C354        C355   1.408       .  A
C354        H363   1.084       .  S
C355        C356   1.419       .  A
C355        S359   1.800       .  S
C356        C357   1.411       .  A
C357        C358   1.402       .  A
C357        H364   1.083       .  S
C358        S360   1.803       .  S
S359        H362   1.407       .  S
S360        H361   1.404       .  S
C365        C366   1.407       .  A
C365        C370   1.418       .  A
C366        C367   1.405       .  A
C366        H375   1.084       .  S
C367        C368   1.418       .  A
C367        S371   1.804       .  S
C368        C369   1.409       .  A
C369        C370   1.408       .  A
C369        H376   1.084       .  S
C370        S372   1.803       .  S
S371        H374   1.407       .  S
S372        H373   1.407       .  S
C377        C626   1.408       .  A
C377        C382   1.411       .  A
C378        H387   1.081       .  S
C379        C626   1.393       .  A
C379        C380   1.411       .  A
C379        S631   1.805       .  S
C380        C381   1.403       .  A
C381        C382   1.390       .  A
C381        H388   1.084       .  S
C382        S384   1.798       .  S
S383        H386   1.407       .  S
S384        H385   1.407       .  S
C389        C390   1.407       .  A
C389        C394   1.401       .  A
C390        C391   1.386       .  A
C390        H399   1.084       .  S
C391        C392   1.405       .  A
C391        S395   1.804       .  S
C392        C393   1.410       .  A
C393        C394   1.387       .  A
C393        H400   1.084       .  S
C394        S396   1.804       .  S
S395        H398   1.407       .  S
S396        H397   1.407       .  S
C401       C1146   1.408       .  A
C401        C406   1.416       .  A
C402       C1145   1.408   1_455  A
C402        C651   1.404   1_545  A
C402        H659   1.083       .  S
C403        C404   1.413   1_455  A
C403        S407   1.803       .  S
C404        C901   1.407       .  A
C405       C1396   1.407       .  A
C405        C406   1.403   1_565  A
C405        H412   1.083       .  S
C406        S408   1.805       .  S
S407        H410   1.407       .  S
S408        H409   1.407       .  S
C413        C414   1.405       .  A
C413        C914   1.418       .  A
C414        C415   1.407       .  A
C414        H423   1.084       .  S
C415        C912   1.418       .  A
C415        S419   1.804       .  S
C416       C1407   1.418       .  A
C416        C417   1.402   1_655  A
C417        C418   1.404       .  A
C417        H424   1.084       .  S
C418       C1405   1.418       .  A
C418        S420   1.798       .  S
S419        H422   1.407       .  S
S420        H421   1.407       .  S
C425        C426   1.407       .  A
C425        C430   1.421       .  A
C426        C427   1.403       .  A
C426        H435   1.084       .  S
C427        C428   1.420       .  A
C427        S431   1.800       .  S
C428        C429   1.408       .  A
C429        C430   1.407       .  A
C429        H436   1.084       .  S
C430        S432   1.800       .  S
S431        H434   1.405       .  S
S432        H433   1.406       .  S
C437        C438   1.412       .  A
C437        C442   1.415       .  A
C438        C439   1.407       .  A
C438        H447   1.084       .  S
C439        C440   1.417       .  A
C439        S443   1.802       .  S
C440        C441   1.413       .  A
C441        C442   1.408       .  A
C441        H448   1.084       .  S
C442        S444   1.801       .  S
S443        H446   1.407       .  S
S444        H445   1.407       .  S
C449        C450   1.400       .  A
C449        C702   1.409       .  A
C450        C451   1.390       .  A
C450        H459   1.085       .  S
C451        C452   1.409       .  A
C451        S455   1.804       .  S
C452        C701   1.400       .  A
C453        C454   1.389       .  A
C453        H460   1.085       .  S
C454        S456   1.805       .  S
S455        H458   1.407       .  S
S456        H457   1.407       .  S
C461        C462   1.405       .  A
C461        C466   1.404       .  A
C462        C711   1.389       .  A
C462        H719   1.082       .  S
C463        S467   1.801       .  S
C464        C711   1.410       .  A
C464        C465   1.410       .  A
C465        C466   1.392       .  A
C465        H472   1.083       .  S
C466        S468   1.803       .  S
S467        H470   1.401       .  S
S468        H469   1.408       .  S
C473        C474   1.410       .  A
C473        C478   1.420   1_565  A
C474        C723   1.405       .  A
C474        H483   1.083       .  S
C475        C476   1.420   1_565  A
C475        S479   1.803       .  S
C477        C724   1.410       .  A
C477        C478   1.405       .  A
C477        H732   1.083       .  S
C478        S480   1.803       .  S
S479        H482   1.408       .  S
S480        H481   1.408       .  S
C485        C486   1.391       .  A
C485        C490   1.421       .  A
C486        C487   1.396       .  A
C486        H495   1.084       .  S
C487        C736   1.420       .  A
C487        S491   1.788       .  S
C488        C489   1.395       .  A
C489        H496   1.083       .  S
C490        C737   1.405       .  A
C490        S740   1.800       .  S
S491        H494   1.405       .  S
H493        S740   1.407       .  S
O497       Ni503   1.904       .  S
O497        C518   1.273       .  A
O498       Ni521   1.895       .  S
O498        C507   1.269       .  A
O499       Ni503   1.883       .  S
O499       Ni521   1.861       .  S
O499       Ni515   1.911       .  S
O499        H522   0.960       .  S
C500        O517   1.284       .  A
C500        O509   1.286       .  A
C500        C688   1.506       .  S
O501       Ni520   1.954       .  S
O501        C507   1.278       .  A
O502       Ni520   1.910       .  S
O502        C504   1.264       .  A
Ni503       O506   1.900       .  S
Ni503       O508   1.928       .  S
C504        O514   1.257       .  A
C504        C709   1.462       .  S
O505       Ni521   1.907       .  S
O505        C511   1.278       .  A
O506        C511   1.274       .  A
C507        C721   1.504       .  S
O508        C510   1.278       .  A
O509       Ni520   1.942       .  S
C510        O516   1.278       .  A
C510        C673   1.501       .  S
C511        C697   1.446       .  S
H512        O513   0.967       .  S
O513       Ni521   1.922       .  S
O513       Ni515   1.895       .  S
O513       Ni520   1.916       .  S
O514       Ni515   1.895       .  S
Ni515       O519   1.906       .  S
Ni515       O517   1.942       .  S
O516       Ni521   1.932       .  S
C518        O519   1.264       .  A
C518        C733   1.477       .  S
O523       Ni529   1.896       .  S
O523       C1288   1.271   1_455  A
O524       Ni547   1.904       .  S
O524        C533   1.268   1_455  A
O525       Ni529   1.893       .  S
O525       Ni547   1.877       .  S
O525      Ni1285   1.917   1_455  S
O525        H548   0.967       .  S
C526        O543   1.276       .  A
C526        O535   1.283       .  A
C526        C604   1.507       .  S
O527       Ni546   1.954       .  S
O527       C1277   1.277       .  A
O528       Ni546   1.903       .  S
O528        C530   1.267       .  A
Ni529       O532   1.897       .  S
Ni529       O534   1.927       .  S
C530        O540   1.263       .  A
C530        C628   1.466       .  S
O531       Ni547   1.904       .  S
O531        C537   1.278       .  A
O532        C537   1.274       .  A
C533       O1271   1.277       .  A
C533        C664   1.491       .  S
O534        C536   1.278       .  A
O535       Ni546   1.948       .  S
C536        O542   1.274       .  A
C536        C613   1.497       .  S
C537        C640   1.454       .  S
H538        O539   0.966       .  S
O539      Ni1291   1.923       .  S
O539       Ni541   1.906       .  S
O539       Ni546   1.918       .  S
O540       Ni541   1.899       .  S
Ni541       O545   1.911       .  S
Ni541       O543   1.913       .  S
Ni541      O1269   1.917       .  S
O542       Ni547   1.933       .  S
C544       O1267   1.271       .  A
C544        O545   1.263       .  A
C544        C649   1.489       .  S
Ni547      O1283   1.923   1_455  S
O549       Ni555   1.961       .  S
O549       C1314   1.280       .  A
O550       Ni573   1.916       .  S
O550        C559   1.266   1_455  A
O551       Ni555   1.919       .  S
O551       Ni573   1.906       .  S
O551      Ni1311   1.924   1_455  S
O551        H574   0.966       .  S
C552        O569   1.278       .  A
C552        O561   1.274       .  A
C552        C700   1.446   1_554  S
O553       Ni572   1.895       .  S
O553       C1303   1.270       .  A
O554       Ni572   1.922       .  S
O554        C556   1.276       .  A
Ni555       O558   1.945       .  S
Ni555       O560   1.909       .  S
C556        O566   1.277       .  A
C556        C676   1.501       .  S
O557       Ni573   1.932       .  S
O557        C563   1.280       .  A
O558        C563   1.285       .  A
C559       O1297   1.270       .  A
C559        C652   1.489       .  S
C562        C712   1.469   1_554  S
C563        C685   1.503       .  S
O565      Ni1317   1.920       .  S
O565       Ni567   1.878       .  S
O565       Ni572   1.888       .  S
O566       Ni567   1.938       .  S
Ni567       O571   1.903       .  S
Ni567      O1295   1.924       .  S
O568       Ni573   1.898       .  S
C570       O1293   1.280       .  A
C570        O571   1.268       .  A
C570        C661   1.495       .  S
Ni573      O1309   1.920   1_455  S
O575       Ni581   1.954       .  S
O575        C596   1.277       .  A
O576       Ni599   1.916       .  S
O576        C585   1.268       .  A
O577       Ni581   1.904       .  S
O577       Ni599   1.902       .  S
O577       Ni593   1.917       .  S
O577        H600   0.966       .  S
C578        O595   1.279       .  A
C578        O587   1.273       .  A
C578        C637   1.449       .  S
O579       Ni598   1.900       .  S
O579        C585   1.271       .  A
O580       Ni598   1.929       .  S
O580        C582   1.279       .  A
Ni581       O584   1.942       .  S
Ni581       O586   1.905       .  S
C582        O592   1.274       .  A
C582        C616   1.498       .  S
O583       Ni599   1.935       .  S
O583        C589   1.283       .  A
O584        C589   1.286       .  A
C585        C736   1.481       .  S
C588        C625   1.475       .  S
C589        C601   1.503       .  S
O591       Ni599   1.906       .  S
O591       Ni593   1.862       .  S
O591       Ni598   1.894       .  S
O592       Ni593   1.928       .  S
Ni593       O597   1.898       .  S
O594       Ni599   1.908       .  S
C596        O597   1.268       .  A
C596        C724   1.504       .  S
C601        C602   1.411       .  A
C601        C606   1.418       .  A
C602        C603   1.408       .  A
C602        H611   1.084       .  S
C603        C604   1.419       .  A
C603        S607   1.800       .  S
C604        C605   1.411       .  A
C605        C606   1.402       .  A
C605        H612   1.083       .  S
C606        S608   1.803       .  S
S607        H610   1.407       .  S
S608        H609   1.404       .  S
C613        C614   1.407       .  A
C613        C618   1.418       .  A
C614        C615   1.405       .  A
C614        H623   1.084       .  S
C615        C616   1.418       .  A
C615        S619   1.804       .  S
C616        C617   1.409       .  A
C617        C618   1.408       .  A
C617        H624   1.084       .  S
C618        S620   1.803       .  S
S619        H622   1.407       .  S
S620        H621   1.407       .  S
C625        C630   1.411   1_554  A
C626        H635   1.081       .  S
C627        C628   1.411   1_554  A
C628        C629   1.403       .  A
C629        C630   1.390       .  A
C629        H636   1.084       .  S
C630        S632   1.798       .  S
S631        H634   1.407       .  S
S632        H633   1.407       .  S
C637        C638   1.407       .  A
C637        C642   1.401   1_554  A
C638        C639   1.386       .  A
C638        H647   1.084       .  S
C639        C640   1.405   1_554  A
C639        S643   1.804       .  S
C640        C641   1.410       .  A
C641        C642   1.387       .  A
C641        H648   1.084       .  S
C642        S644   1.804       .  S
S643        H646   1.407       .  S
S644        H645   1.407       .  S
C649       C1394   1.408       .  A
C649        C654   1.416       .  A
C650       C1393   1.408   1_455  A
C651        C652   1.413   1_455  A
C651        S655   1.803       .  S
C652       C1149   1.407       .  A
C653        C900   1.407   1_556  A
C653        C654   1.403   1_565  A
C653        H660   1.083   1_556  S
C654        S656   1.805       .  S
S655        H658   1.407       .  S
S656        H657   1.407       .  S
C661        C662   1.405       .  A
C661       C1162   1.418       .  A
C662        C663   1.407       .  A
C662        H671   1.084       .  S
C663       C1160   1.418       .  A
C663        S667   1.804       .  S
C664        C911   1.418   1_556  A
C664        C665   1.402   1_655  A
C665        C666   1.404       .  A
C665        H672   1.084       .  S
C666        C909   1.418   1_556  A
C666        S668   1.798       .  S
S667        H670   1.407       .  S
S668        H669   1.407       .  S
C673        C674   1.407       .  A
C673        C678   1.421       .  A
C674        C675   1.403       .  A
C674        H683   1.084       .  S
C675        C676   1.420       .  A
C675        S679   1.800       .  S
C676        C677   1.408       .  A
C677        C678   1.407       .  A
C677        H684   1.084       .  S
C678        S680   1.800       .  S
S679        H682   1.405       .  S
S680        H681   1.406       .  S
C685        C686   1.412       .  A
C685        C690   1.415       .  A
C686        C687   1.407       .  A
C686        H695   1.084       .  S
C687        C688   1.417       .  A
C687        S691   1.802       .  S
C688        C689   1.413       .  A
C689        C690   1.408       .  A
C689        H696   1.084       .  S
C690        S692   1.801       .  S
S691        H694   1.407       .  S
S692        H693   1.407       .  S
C697        C698   1.400       .  A
C698        C699   1.390       .  A
C698        H707   1.085       .  S
C699        C700   1.409       .  A
C699        S703   1.804       .  S
C701        C702   1.389       .  A
C701        H708   1.085       .  S
C702        S704   1.805       .  S
S703        H706   1.407       .  S
S704        H705   1.407       .  S
C709        C710   1.405       .  A
C709        C714   1.404       .  A
C711        S715   1.801       .  S
C712        C713   1.410       .  A
C713        C714   1.392       .  A
C713        H720   1.083   1_556  S
C714        S716   1.803       .  S
S715        H718   1.401       .  S
S716        H717   1.408       .  S
C721        C722   1.410       .  A
C721        C726   1.420   1_565  A
C722        H731   1.083       .  S
C723        C724   1.420   1_565  A
C723        S727   1.803       .  S
C725        C726   1.405   1_554  A
C726        S728   1.803       .  S
S727        H730   1.408       .  S
S728        H729   1.408       .  S
C733        C734   1.391       .  A
C733        C738   1.421       .  A
C734        C735   1.396       .  A
C734        H743   1.084       .  S
C735        S739   1.788       .  S
C736        C737   1.395       .  A
C737        H744   1.083       .  S
S739        H742   1.405       .  S
O745       Ni751   1.904       .  S
O745        C766   1.273       .  A
O746       Ni769   1.895       .  S
O746        C755   1.269       .  A
O747       Ni751   1.883       .  S
O747       Ni769   1.861       .  S
O747       Ni763   1.911       .  S
O747        H770   0.960       .  S
C748        O765   1.284       .  A
C748        O757   1.286       .  A
C748        C936   1.506       .  S
O749       Ni768   1.954       .  S
O749        C755   1.278       .  A
O750       Ni768   1.910       .  S
O750        C752   1.264       .  A
Ni751       O754   1.900       .  S
Ni751       O756   1.928       .  S
C752        O762   1.257       .  A
C752        C957   1.462       .  S
O753       Ni769   1.907       .  S
O753        C759   1.278       .  A
O754        C759   1.274       .  A
C755        C969   1.504       .  S
O756        C758   1.278       .  A
O757       Ni768   1.942       .  S
C758        O764   1.278       .  A
C758        C921   1.501       .  S
C759        C945   1.446       .  S
H760        O761   0.967       .  S
O761       Ni769   1.922       .  S
O761       Ni763   1.895       .  S
O761       Ni768   1.916       .  S
O762       Ni763   1.895       .  S
Ni763       O767   1.906       .  S
Ni763       O765   1.942       .  S
O764       Ni769   1.932       .  S
C766        O767   1.264       .  A
C766        C981   1.477       .  S
O771       Ni777   1.896       .  S
O772       Ni795   1.904       .  S
O772        C781   1.268       .  A
O773       Ni777   1.893       .  S
O773       Ni795   1.877       .  S
O773        H796   0.967       .  S
C774        O791   1.276       .  A
C774        O783   1.283       .  A
C774        C852   1.507       .  S
O775       Ni794   1.954       .  S
O776       Ni794   1.903       .  S
O776        C778   1.267       .  A
Ni777       O780   1.897       .  S
Ni777       O782   1.927       .  S
C778        O788   1.263       .  A
C778        C876   1.466       .  S
O779       Ni795   1.904       .  S
O779        C785   1.278       .  A
O780        C785   1.274       .  A
C781        C912   1.491       .  S
O782        C784   1.278       .  A
O783       Ni794   1.948       .  S
C784        O790   1.274       .  A
C784        C861   1.497       .  S
C785        C888   1.454       .  S
H786        O787   0.966       .  S
O787       Ni789   1.907       .  S
O787       Ni794   1.918       .  S
O788       Ni789   1.899       .  S
Ni789       O793   1.911       .  S
Ni789       O791   1.913       .  S
O790       Ni795   1.933       .  S
C792        O793   1.263       .  A
C792        C897   1.489       .  S
O797       Ni803   1.961       .  S
O798       Ni821   1.916       .  S
O798        C807   1.266       .  A
O799       Ni803   1.919       .  S
O799       Ni821   1.906       .  S
O799        H822   0.966       .  S
C800        O817   1.278       .  A
C800        O809   1.274       .  A
C800        C948   1.446       .  S
O801       Ni820   1.895       .  S
O802       Ni820   1.922       .  S
O802        C804   1.276       .  A
Ni803       O806   1.945       .  S
Ni803       O808   1.909       .  S
C804        O814   1.277       .  A
C804        C924   1.501       .  S
O805       Ni821   1.932       .  S
O805        C811   1.280       .  A
O806        C811   1.285       .  A
C807        C900   1.489       .  S
O808       C1306   1.266       .  A
O809      Ni1068   1.900       .  S
C810       O1056   1.266       .  A
C810       O1064   1.262       .  A
C810        C960   1.469       .  S
C811        C933   1.503       .  S
H812       O1061   0.967       .  S
O813       Ni815   1.878       .  S
O813       Ni820   1.888       .  S
O813       H1308   0.967       .  S
O814       Ni815   1.938       .  S
Ni815       O819   1.903       .  S
Ni815      O1313   1.906       .  S
O816       Ni821   1.898       .  S
O816       C1306   1.262       .  A
O817      Ni1063   1.906       .  S
C818        O819   1.268   1_455  A
C818        C909   1.495       .  S
Ni820      O1305   1.900       .  S
O823       Ni829   1.954       .  S
O823        C844   1.277       .  A
O824       Ni847   1.916       .  S
O824        C833   1.268       .  A
O825       Ni829   1.904       .  S
O825       Ni847   1.902       .  S
O825       Ni841   1.917       .  S
O825        H848   0.966       .  S
C826        O843   1.279       .  A
C826        O835   1.273       .  A
C826        C885   1.449       .  S
O827       Ni846   1.900       .  S
O827        C833   1.271       .  A
O828       Ni846   1.929       .  S
O828        C830   1.279       .  A
Ni829       O832   1.942       .  S
Ni829       O834   1.905       .  S
C830        O840   1.274       .  A
C830        C864   1.498       .  S
O831       Ni847   1.935       .  S
O831        C837   1.283       .  A
O832        C837   1.286       .  A
C833        C984   1.481       .  S
O834       C1332   1.266       .  A
O835      Ni1094   1.895       .  S
C836       O1082   1.266       .  A
C836       O1090   1.265       .  A
C836        C873   1.475       .  S
C837        C849   1.503       .  S
H838       O1087   0.962       .  S
O839       Ni847   1.906       .  S
O839       Ni841   1.862       .  S
O839       Ni846   1.894       .  S
O839       H1334   0.962       .  S
O840       Ni841   1.928       .  S
Ni841       O845   1.898       .  S
Ni841      O1339   1.906       .  S
O842       Ni847   1.908       .  S
O842       C1332   1.265       .  A
O843      Ni1089   1.905       .  S
C844        O845   1.268       .  A
C844        C972   1.504       .  S
Ni846      O1331   1.895       .  S
C849        C850   1.411       .  A
C849        C854   1.418       .  A
C850        C851   1.408       .  A
C850        H859   1.084       .  S
C851        C852   1.419       .  A
C851        S855   1.800       .  S
C852        C853   1.411       .  A
C853        C854   1.402       .  A
C853        H860   1.083       .  S
C854        S856   1.803       .  S
S855        H858   1.407       .  S
S856        H857   1.404       .  S
C861        C862   1.407       .  A
C861        C866   1.418       .  A
C862        C863   1.405       .  A
C862        H871   1.084       .  S
C863        C864   1.418       .  A
C863        S867   1.804       .  S
C864        C865   1.409       .  A
C865        C866   1.408       .  A
C865        H872   1.084       .  S
C866        S868   1.803       .  S
S867        H870   1.407       .  S
S868        H869   1.407       .  S
C873       C1122   1.408       .  A
C873        C878   1.411       .  A
C874       C1369   1.408       .  A
C874       C1371   1.393       .  A
C874        H883   1.081       .  S
C875       C1122   1.393       .  A
C875        C876   1.411       .  A
C875       S1127   1.805       .  S
C876        C877   1.403       .  A
C877        C878   1.390       .  A
C877        H884   1.084       .  S
C878        S880   1.798       .  S
S879       C1371   1.805       .  S
S879        H882   1.407       .  S
S880        H881   1.407       .  S
C885        C886   1.407       .  A
C885        C890   1.401       .  A
C886        C887   1.386       .  A
C886        H895   1.084       .  S
C887        C888   1.405       .  A
C887        S891   1.804       .  S
C888        C889   1.410       .  A
C889        C890   1.387       .  A
C889        H896   1.084       .  S
C890        S892   1.804       .  S
S891        H894   1.407       .  S
S892        H893   1.407       .  S
C897        C902   1.416       .  A
C898       C1147   1.404   1_545  A
C898       H1155   1.083       .  S
C899       C1394   1.404   1_564  A
C899        C900   1.413       .  A
C899        S903   1.803       .  S
C901        C902   1.403   1_565  A
C901        H908   1.083       .  S
C902        S904   1.805       .  S
S903        H906   1.407       .  S
S904        H905   1.407       .  S
H907       C1394   1.083       .  S
C909        C910   1.405   1_455  A
C910        C911   1.407       .  A
C910        H919   1.084       .  S
C911        S915   1.804       .  S
C912        C913   1.402       .  A
C913        C914   1.404       .  A
C913        H920   1.084       .  S
C914        S916   1.798       .  S
S915        H918   1.407       .  S
S916        H917   1.407       .  S
C921        C922   1.407       .  A
C921        C926   1.421       .  A
C922        C923   1.403       .  A
C922        H931   1.084       .  S
C923        C924   1.420       .  A
C923        S927   1.800       .  S
C924        C925   1.408       .  A
C925        C926   1.407       .  A
C925        H932   1.084       .  S
C926        S928   1.800       .  S
S927        H930   1.405       .  S
S928        H929   1.406       .  S
C933        C934   1.412       .  A
C933        C938   1.415       .  A
C934        C935   1.407       .  A
C934        H943   1.084       .  S
C935        C936   1.417       .  A
C935        S939   1.802       .  S
C936        C937   1.413       .  A
C937        C938   1.408       .  A
C937        H944   1.084       .  S
C938        S940   1.801       .  S
S939        H942   1.407       .  S
S940        H941   1.407       .  S
C945        C946   1.400       .  A
C945       C1198   1.409       .  A
C946        C947   1.390       .  A
C946        H955   1.085       .  S
C947        C948   1.409       .  A
C947        S951   1.804       .  S
C948       C1197   1.400       .  A
C949       C1444   1.400   1_554  A
C949        C950   1.389       .  A
C949        H956   1.085       .  S
C950       C1441   1.409   1_554  A
C950        S952   1.805       .  S
S951        H954   1.407       .  S
S952        H953   1.407       .  S
C957        C958   1.405       .  A
C957        C962   1.404       .  A
C958       C1207   1.389       .  A
C958       H1215   1.082       .  S
C959       C1454   1.389       .  A
C959       C1456   1.410       .  A
C959        S963   1.801       .  S
C960       C1207   1.410       .  A
C960        C961   1.410       .  A
C961        C962   1.392       .  A
C961        H968   1.083       .  S
C962        S964   1.803       .  S
S963        H966   1.401       .  S
S964        H965   1.408       .  S
H967       C1454   1.082       .  S
C969        C970   1.410       .  A
C969        C974   1.420   1_565  A
C970       C1219   1.405       .  A
C970        H979   1.083       .  S
C971       C1466   1.405       .  A
C971        C972   1.420   1_566  A
C971        S975   1.803   1_556  S
C972       C1469   1.410       .  A
C973       C1220   1.410       .  A
C973        C974   1.405       .  A
C973       H1228   1.083       .  S
C974        S976   1.803       .  S
S975        H978   1.408       .  S
S976        H977   1.408       .  S
H980       C1469   1.083       .  S
C981        C982   1.391       .  A
C981        C986   1.421       .  A
C982        C983   1.396       .  A
C982        H991   1.084       .  S
C983       C1232   1.420       .  A
C983        S987   1.788       .  S
C984       C1479   1.420   1_554  A
C984        C985   1.395       .  A
C985       C1482   1.405   1_554  A
C985        H992   1.083       .  S
C986       C1233   1.405       .  A
C986       S1236   1.800       .  S
S987        H990   1.405       .  S
S988       C1482   1.800   1_554  S
S988       H1485   1.407       .  S
H989       S1236   1.407       .  S
O993       Ni999   1.904       .  S
O993       C1014   1.273       .  A
O994      Ni1017   1.895       .  S
O994       C1003   1.269       .  A
O995       Ni999   1.883       .  S
O995      Ni1017   1.861       .  S
O995      Ni1011   1.911       .  S
O995       H1018   0.960       .  S
C996       O1013   1.284       .  A
C996       O1005   1.286       .  A
C996       C1184   1.506       .  S
O997      Ni1016   1.954       .  S
O997       C1003   1.278       .  A
O998      Ni1016   1.910       .  S
O998       C1000   1.264       .  A
Ni999      O1002   1.900       .  S
Ni999      O1004   1.928       .  S
C1000      O1010   1.257       .  A
C1000      C1205   1.462       .  S
O1001     Ni1017   1.907       .  S
O1001      C1007   1.278       .  A
O1002      C1007   1.274       .  A
C1003      C1217   1.504       .  S
O1004      C1006   1.278       .  A
O1005     Ni1016   1.942       .  S
C1006      O1012   1.278       .  A
C1006      C1169   1.501       .  S
C1007      C1193   1.446       .  S
H1008      O1009   0.967       .  S
O1009     Ni1017   1.922       .  S
O1009     Ni1011   1.895       .  S
O1009     Ni1016   1.916       .  S
O1010     Ni1011   1.895       .  S
Ni1011     O1015   1.906       .  S
Ni1011     O1013   1.942       .  S
O1012     Ni1017   1.932       .  S
C1014      O1015   1.264       .  A
C1014      C1229   1.477       .  S
O1019     Ni1025   1.896       .  S
O1020     Ni1043   1.904       .  S
O1020      C1029   1.268       .  A
O1021     Ni1025   1.893       .  S
O1021     Ni1043   1.877       .  S
O1021      H1044   0.967       .  S
C1022      O1039   1.276       .  A
C1022      O1031   1.283       .  A
C1022      C1100   1.507       .  S
O1023     Ni1042   1.954       .  S
O1024     Ni1042   1.903       .  S
O1024      C1026   1.267       .  A
Ni1025     O1028   1.897       .  S
Ni1025     O1030   1.927       .  S
C1026      O1036   1.263       .  A
C1026      C1124   1.466       .  S
O1027     Ni1043   1.904       .  S
O1027      C1033   1.278       .  A
O1028      C1033   1.274       .  A
C1029      C1160   1.491       .  S
O1030      C1032   1.278       .  A
O1031     Ni1042   1.948       .  S
C1032      O1038   1.274       .  A
C1032      C1109   1.497       .  S
C1033      C1136   1.454       .  S
H1034      O1035   0.966       .  S
O1035     Ni1037   1.907       .  S
O1035     Ni1042   1.918       .  S
O1036     Ni1037   1.899       .  S
Ni1037     O1041   1.911       .  S
Ni1037     O1039   1.913       .  S
O1038     Ni1043   1.933       .  S
C1040      O1041   1.263       .  A
C1040      C1145   1.489       .  S
O1045     Ni1051   1.961       .  S
O1046     Ni1069   1.916       .  S
O1046      C1055   1.266       .  A
O1047     Ni1051   1.919       .  S
O1047     Ni1069   1.906       .  S
O1047      H1070   0.966       .  S
C1048      O1065   1.278       .  A
C1048      O1057   1.274       .  A
C1048      C1196   1.446       .  S
O1049     Ni1068   1.895       .  S
O1050     Ni1068   1.922       .  S
O1050      C1052   1.276       .  A
Ni1051     O1054   1.945       .  S
Ni1051     O1056   1.909       .  S
C1052      O1062   1.277       .  A
C1052      C1172   1.501       .  S
O1053     Ni1069   1.932       .  S
O1053      C1059   1.280       .  A
O1054      C1059   1.285       .  A
C1055      C1148   1.489       .  S
O1057     Ni1316   1.900       .  S
C1058      O1304   1.266       .  A
C1058      O1312   1.262       .  A
C1058      C1208   1.469       .  S
C1059      C1181   1.503       .  S
H1060      O1309   0.967       .  S
O1061     Ni1063   1.878       .  S
O1061     Ni1068   1.888       .  S
O1062     Ni1063   1.938       .  S
Ni1063     O1067   1.903       .  S
O1064     Ni1069   1.898       .  S
O1065     Ni1311   1.906       .  S
C1066      O1067   1.268   1_455  A
C1066      C1157   1.495       .  S
O1071     Ni1077   1.954       .  S
O1071      C1092   1.277       .  A
O1072     Ni1095   1.916       .  S
O1072      C1081   1.268       .  A
O1073     Ni1077   1.904       .  S
O1073     Ni1095   1.902       .  S
O1073     Ni1089   1.917       .  S
O1073      H1096   0.966       .  S
C1074      O1091   1.279       .  A
C1074      O1083   1.273       .  A
C1074      C1133   1.449       .  S
O1075     Ni1094   1.900       .  S
O1075      C1081   1.271       .  A
O1076     Ni1094   1.929       .  S
O1076      C1078   1.279       .  A
Ni1077     O1080   1.942       .  S
Ni1077     O1082   1.905       .  S
C1078      O1088   1.274       .  A
C1078      C1112   1.498       .  S
O1079     Ni1095   1.935       .  S
O1079      C1085   1.283       .  A
O1080      C1085   1.286       .  A
C1081      C1232   1.481       .  S
O1083     Ni1342   1.895       .  S
C1084      O1330   1.266       .  A
C1084      O1338   1.265       .  A
C1084      C1121   1.475       .  S
C1085      C1097   1.503       .  S
H1086      O1335   0.962       .  S
O1087     Ni1095   1.906       .  S
O1087     Ni1089   1.862       .  S
O1087     Ni1094   1.894       .  S
O1088     Ni1089   1.928       .  S
Ni1089     O1093   1.898       .  S
O1090     Ni1095   1.908       .  S
O1091     Ni1337   1.905       .  S
C1092      O1093   1.268       .  A
C1092      C1220   1.504       .  S
C1097      C1098   1.411       .  A
C1097      C1102   1.418       .  A
C1098      C1099   1.408       .  A
C1098      H1107   1.084       .  S
C1099      C1100   1.419       .  A
C1099      S1103   1.800       .  S
C1100      C1101   1.411       .  A
C1101      C1102   1.402       .  A
C1101      H1108   1.083       .  S
C1102      S1104   1.803       .  S
S1103      H1106   1.407       .  S
S1104      H1105   1.404       .  S
C1109      C1110   1.407       .  A
C1109      C1114   1.418       .  A
C1110      C1111   1.405       .  A
C1110      H1119   1.084       .  S
C1111      C1112   1.418       .  A
C1111      S1115   1.804       .  S
C1112      C1113   1.409       .  A
C1113      C1114   1.408       .  A
C1113      H1120   1.084       .  S
C1114      S1116   1.803       .  S
S1115      H1118   1.407       .  S
S1116      H1117   1.407       .  S
C1121      C1370   1.408       .  A
C1121      C1126   1.411       .  A
C1122      H1131   1.081       .  S
C1123      C1370   1.393       .  A
C1123      C1124   1.411       .  A
C1123      S1375   1.805       .  S
C1124      C1125   1.403       .  A
C1125      C1126   1.390       .  A
C1125      H1132   1.084       .  S
C1126      S1128   1.798       .  S
S1127      H1130   1.407       .  S
S1128      H1129   1.407       .  S
C1133      C1134   1.407       .  A
C1133      C1138   1.401       .  A
C1134      C1135   1.386       .  A
C1134      H1143   1.084       .  S
C1135      C1136   1.405       .  A
C1135      S1139   1.804       .  S
C1136      C1137   1.410       .  A
C1137      C1138   1.387       .  A
C1137      H1144   1.084       .  S
C1138      S1140   1.804       .  S
S1139      H1142   1.407       .  S
S1140      H1141   1.407       .  S
C1145      C1150   1.416       .  A
C1146      C1395   1.404   1_545  A
C1146      H1403   1.083       .  S
C1147      C1148   1.413       .  A
C1147      S1151   1.803       .  S
C1149      C1150   1.403   1_565  A
C1149      H1156   1.083       .  S
C1150      S1152   1.805       .  S
S1151      H1154   1.407       .  S
S1152      H1153   1.407       .  S
C1157      C1158   1.405   1_455  A
C1158      C1159   1.407       .  A
C1158      H1167   1.084       .  S
C1159      S1163   1.804       .  S
C1160      C1161   1.402       .  A
C1161      C1162   1.404       .  A
C1161      H1168   1.084       .  S
C1162      S1164   1.798       .  S
S1163      H1166   1.407       .  S
S1164      H1165   1.407       .  S
C1169      C1170   1.407       .  A
C1169      C1174   1.421       .  A
C1170      C1171   1.403       .  A
C1170      H1179   1.084       .  S
C1171      C1172   1.420       .  A
C1171      S1175   1.800       .  S
C1172      C1173   1.408       .  A
C1173      C1174   1.407       .  A
C1173      H1180   1.084       .  S
C1174      S1176   1.800       .  S
S1175      H1178   1.405       .  S
S1176      H1177   1.406       .  S
C1181      C1182   1.412       .  A
C1181      C1186   1.415       .  A
C1182      C1183   1.407       .  A
C1182      H1191   1.084       .  S
C1183      C1184   1.417       .  A
C1183      S1187   1.802       .  S
C1184      C1185   1.413       .  A
C1185      C1186   1.408       .  A
C1185      H1192   1.084       .  S
C1186      S1188   1.801       .  S
S1187      H1190   1.407       .  S
S1188      H1189   1.407       .  S
C1193      C1194   1.400       .  A
C1193      C1446   1.409       .  A
C1194      C1195   1.390       .  A
C1194      H1203   1.085       .  S
C1195      C1196   1.409       .  A
C1195      S1199   1.804       .  S
C1196      C1445   1.400       .  A
C1197      C1198   1.389       .  A
C1197      H1204   1.085       .  S
C1198      S1200   1.805       .  S
S1199      H1202   1.407       .  S
S1200      H1201   1.407       .  S
C1205      C1206   1.405       .  A
C1205      C1210   1.404       .  A
C1206      C1455   1.389       .  A
C1206      H1463   1.082       .  S
C1207      S1211   1.801       .  S
C1208      C1455   1.410       .  A
C1208      C1209   1.410       .  A
C1209      C1210   1.392       .  A
C1209      H1216   1.083       .  S
C1210      S1212   1.803       .  S
S1211      H1214   1.401       .  S
S1212      H1213   1.408       .  S
C1217      C1218   1.410       .  A
C1217      C1222   1.420   1_565  A
C1218      C1467   1.405       .  A
C1218      H1227   1.083       .  S
C1219      C1220   1.420   1_565  A
C1219      S1223   1.803       .  S
C1221      C1468   1.410       .  A
C1221      C1222   1.405       .  A
C1221      H1476   1.083       .  S
C1222      S1224   1.803       .  S
S1223      H1226   1.408       .  S
S1224      H1225   1.408       .  S
C1229      C1230   1.391       .  A
C1229      C1234   1.421       .  A
C1230      C1231   1.396       .  A
C1230      H1239   1.084       .  S
C1231      C1480   1.420       .  A
C1231      S1235   1.788       .  S
C1232      C1233   1.395       .  A
C1233      H1240   1.083       .  S
C1234      C1481   1.405       .  A
C1234      S1484   1.800       .  S
S1235      H1238   1.405       .  S
H1237      S1484   1.407       .  S
O1241     Ni1247   1.904       .  S
O1241      C1262   1.273       .  A
O1242     Ni1265   1.895       .  S
O1242      C1251   1.269       .  A
O1243     Ni1247   1.883       .  S
O1243     Ni1265   1.861       .  S
O1243     Ni1259   1.911       .  S
O1243      H1266   0.960       .  S
C1244      O1261   1.284       .  A
C1244      O1253   1.286       .  A
C1244      C1432   1.506       .  S
O1245     Ni1264   1.954       .  S
O1245      C1251   1.278       .  A
O1246     Ni1264   1.910       .  S
O1246      C1248   1.264       .  A
Ni1247     O1250   1.900       .  S
Ni1247     O1252   1.928       .  S
C1248      O1258   1.257       .  A
C1248      C1453   1.462       .  S
O1249     Ni1265   1.907       .  S
O1249      C1255   1.278       .  A
O1250      C1255   1.274       .  A
C1251      C1465   1.504       .  S
O1252      C1254   1.278       .  A
O1253     Ni1264   1.942       .  S
C1254      O1260   1.278       .  A
C1254      C1417   1.501       .  S
C1255      C1441   1.446       .  S
H1256      O1257   0.967       .  S
O1257     Ni1265   1.922       .  S
O1257     Ni1259   1.895       .  S
O1257     Ni1264   1.916       .  S
O1258     Ni1259   1.895       .  S
Ni1259     O1263   1.906       .  S
Ni1259     O1261   1.942       .  S
O1260     Ni1265   1.932       .  S
C1262      O1263   1.264       .  A
C1262      C1477   1.477       .  S
O1267     Ni1273   1.896       .  S
O1268     Ni1291   1.904       .  S
O1268      C1277   1.268       .  A
O1269     Ni1273   1.893       .  S
O1269     Ni1291   1.877       .  S
O1269      H1292   0.967       .  S
C1270      O1287   1.276       .  A
C1270      O1279   1.283       .  A
C1270      C1348   1.507       .  S
O1271     Ni1290   1.954       .  S
O1272     Ni1290   1.903       .  S
O1272      C1274   1.267       .  A
Ni1273     O1276   1.897       .  S
Ni1273     O1278   1.927       .  S
C1274      O1284   1.263       .  A
C1274      C1372   1.466       .  S
O1275     Ni1291   1.904       .  S
O1275      C1281   1.278       .  A
O1276      C1281   1.274       .  A
C1277      C1408   1.491       .  S
O1278      C1280   1.278       .  A
O1279     Ni1290   1.948       .  S
C1280      O1286   1.274       .  A
C1280      C1357   1.497       .  S
C1281      C1384   1.454       .  S
H1282      O1283   0.966       .  S
O1283     Ni1285   1.906       .  S
O1283     Ni1290   1.918       .  S
O1284     Ni1285   1.899       .  S
Ni1285     O1289   1.911       .  S
Ni1285     O1287   1.913       .  S
O1286     Ni1291   1.933       .  S
C1288      O1289   1.263       .  A
C1288      C1393   1.489       .  S
O1293     Ni1299   1.961       .  S
O1294     Ni1317   1.916       .  S
O1294      C1303   1.266       .  A
O1295     Ni1299   1.919       .  S
O1295     Ni1317   1.906       .  S
O1295      H1318   0.966       .  S
C1296      O1313   1.278       .  A
C1296      O1305   1.274       .  A
C1296      C1444   1.446   1_554  S
O1297     Ni1316   1.895       .  S
O1298     Ni1316   1.922       .  S
O1298      C1300   1.276       .  A
Ni1299     O1302   1.945       .  S
Ni1299     O1304   1.909       .  S
C1300      O1310   1.277       .  A
C1300      C1420   1.501       .  S
O1301     Ni1317   1.932       .  S
O1301      C1307   1.280       .  A
O1302      C1307   1.285       .  A
C1303      C1396   1.489       .  S
C1306      C1456   1.469   1_554  S
C1307      C1429   1.503       .  S
O1309     Ni1311   1.878       .  S
O1309     Ni1316   1.888       .  S
O1310     Ni1311   1.938       .  S
Ni1311     O1315   1.903       .  S
O1312     Ni1317   1.898       .  S
C1314      O1315   1.268   1_455  A
C1314      C1405   1.495       .  S
O1319     Ni1325   1.954       .  S
O1319      C1340   1.277       .  A
O1320     Ni1343   1.916       .  S
O1320      C1329   1.268       .  A
O1321     Ni1325   1.904       .  S
O1321     Ni1343   1.902       .  S
O1321     Ni1337   1.917       .  S
O1321      H1344   0.966       .  S
C1322      O1339   1.279       .  A
C1322      O1331   1.273       .  A
C1322      C1381   1.449       .  S
O1323     Ni1342   1.900       .  S
O1323      C1329   1.271       .  A
O1324     Ni1342   1.929       .  S
O1324      C1326   1.279       .  A
Ni1325     O1328   1.942       .  S
Ni1325     O1330   1.905       .  S
C1326      O1336   1.274       .  A
C1326      C1360   1.498       .  S
O1327     Ni1343   1.935       .  S
O1327      C1333   1.283       .  A
O1328      C1333   1.286       .  A
C1329      C1480   1.481       .  S
C1332      C1369   1.475       .  S
C1333      C1345   1.503       .  S
O1335     Ni1343   1.906       .  S
O1335     Ni1337   1.862       .  S
O1335     Ni1342   1.894       .  S
O1336     Ni1337   1.928       .  S
Ni1337     O1341   1.898       .  S
O1338     Ni1343   1.908       .  S
C1340      O1341   1.268       .  A
C1340      C1468   1.504       .  S
C1345      C1346   1.411       .  A
C1345      C1350   1.418       .  A
C1346      C1347   1.408       .  A
C1346      H1355   1.084       .  S
C1347      C1348   1.419       .  A
C1347      S1351   1.800       .  S
C1348      C1349   1.411       .  A
C1349      C1350   1.402       .  A
C1349      H1356   1.083       .  S
C1350      S1352   1.803       .  S
S1351      H1354   1.407       .  S
S1352      H1353   1.404       .  S
C1357      C1358   1.407       .  A
C1357      C1362   1.418       .  A
C1358      C1359   1.405       .  A
C1358      H1367   1.084       .  S
C1359      C1360   1.418       .  A
C1359      S1363   1.804       .  S
C1360      C1361   1.409       .  A
C1361      C1362   1.408       .  A
C1361      H1368   1.084       .  S
C1362      S1364   1.803       .  S
S1363      H1366   1.407       .  S
S1364      H1365   1.407       .  S
C1369      C1374   1.411   1_554  A
C1370      H1379   1.081       .  S
C1371      C1372   1.411   1_554  A
C1372      C1373   1.403       .  A
C1373      C1374   1.390       .  A
C1373      H1380   1.084       .  S
C1374      S1376   1.798       .  S
S1375      H1378   1.407       .  S
S1376      H1377   1.407       .  S
C1381      C1382   1.407       .  A
C1381      C1386   1.401   1_554  A
C1382      C1383   1.386       .  A
C1382      H1391   1.084       .  S
C1383      C1384   1.405   1_554  A
C1383      S1387   1.804       .  S
C1384      C1385   1.410       .  A
C1385      C1386   1.387       .  A
C1385      H1392   1.084       .  S
C1386      S1388   1.804       .  S
S1387      H1390   1.407       .  S
S1388      H1389   1.407       .  S
C1393      C1398   1.416       .  A
C1395      C1396   1.413       .  A
C1395      S1399   1.803       .  S
C1397      C1398   1.403   1_565  A
C1397      H1404   1.083   1_556  S
C1398      S1400   1.805       .  S
S1399      H1402   1.407       .  S
S1400      H1401   1.407       .  S
C1405      C1406   1.405   1_455  A
C1406      C1407   1.407       .  A
C1406      H1415   1.084       .  S
C1407      S1411   1.804       .  S
C1408      C1409   1.402       .  A
C1409      C1410   1.404       .  A
C1409      H1416   1.084       .  S
C1410      S1412   1.798       .  S
S1411      H1414   1.407       .  S
S1412      H1413   1.407       .  S
C1417      C1418   1.407       .  A
C1417      C1422   1.421       .  A
C1418      C1419   1.403       .  A
C1418      H1427   1.084       .  S
C1419      C1420   1.420       .  A
C1419      S1423   1.800       .  S
C1420      C1421   1.408       .  A
C1421      C1422   1.407       .  A
C1421      H1428   1.084       .  S
C1422      S1424   1.800       .  S
S1423      H1426   1.405       .  S
S1424      H1425   1.406       .  S
C1429      C1430   1.412       .  A
C1429      C1434   1.415       .  A
C1430      C1431   1.407       .  A
C1430      H1439   1.084       .  S
C1431      C1432   1.417       .  A
C1431      S1435   1.802       .  S
C1432      C1433   1.413       .  A
C1433      C1434   1.408       .  A
C1433      H1440   1.084       .  S
C1434      S1436   1.801       .  S
S1435      H1438   1.407       .  S
S1436      H1437   1.407       .  S
C1441      C1442   1.400       .  A
C1442      C1443   1.390       .  A
C1442      H1451   1.085       .  S
C1443      C1444   1.409       .  A
C1443      S1447   1.804       .  S
C1445      C1446   1.389       .  A
C1445      H1452   1.085       .  S
C1446      S1448   1.805       .  S
S1447      H1450   1.407       .  S
S1448      H1449   1.407       .  S
C1453      C1454   1.405       .  A
C1453      C1458   1.404       .  A
C1455      S1459   1.801       .  S
C1456      C1457   1.410       .  A
C1457      C1458   1.392       .  A
C1457      H1464   1.083   1_556  S
C1458      S1460   1.803       .  S
S1459      H1462   1.401       .  S
S1460      H1461   1.408       .  S
C1465      C1466   1.410       .  A
C1465      C1470   1.420   1_565  A
C1466      H1475   1.083       .  S
C1467      C1468   1.420   1_565  A
C1467      S1471   1.803       .  S
C1469      C1470   1.405   1_554  A
C1470      S1472   1.803       .  S
S1471      H1474   1.408       .  S
S1472      H1473   1.408       .  S
C1477      C1478   1.391       .  A
C1477      C1482   1.421       .  A
C1478      C1479   1.396       .  A
C1478      H1487   1.084       .  S
C1479      S1483   1.788       .  S
C1480      C1481   1.395       .  A
C1481      H1488   1.083       .  S
S1483      H1486   1.405       .  S
