geometry optimzed in LAMMPS
_audit_creation_date              2020-12-01 
_audit_creation_method            'lammps2cif' 
_symmetry_space_group_name_H-M    'P1' 
_symmetry_Int_Tables_number       1 
_symmetry_cell_setting            triclinic 
loop_ 
_symmetry_equiv_pos_as_xyz 
  x,y,z 
_cell_length_a                    38.97705143 
_cell_length_b                    38.86223623676524 
_cell_length_c                    50.08476983360637 
_cell_angle_alpha                 89.80625963840706 
_cell_angle_beta                  89.54363153559483 
_cell_angle_gamma                 120.02104680007345 
loop_ 
_atom_site_label 
_atom_site_type_symbol 
_atom_site_fract_x 
_atom_site_fract_y 
_atom_site_fract_z 
_atom_site_charge 
Zn1        Zn  0.07734639  0.24467058  0.62655728     1.49700
Zn2        Zn  0.08274047  0.16561433  0.62583562     1.49400
Zn3        Zn  0.10704130  0.22020963  0.57300785     1.49100
Zn4        Zn  0.16082297  0.24952940  0.62534279     1.49500
O5          O  0.10680546  0.21999971  0.61207801    -1.83400
O6          O  0.03386865  0.20817831  0.65117886    -0.74000
O7          O  0.06057261  0.12457711  0.59679384    -0.73800
O8          O  0.07805769  0.24985457  0.56011621    -0.73400
O9          O  0.04205789  0.15588159  0.65369868    -0.74000
O10         O  0.05687619  0.26518982  0.59738193    -0.73600
O11         O  0.07738964  0.16161918  0.55964937    -0.74200
O12         O  0.20185828  0.26949914  0.59628132    -0.73600
O13         O  0.11980638  0.15734690  0.64843457    -0.74400
O14         O  0.16568664  0.24934715  0.55930077    -0.73800
O15         O  0.17148131  0.21788933  0.65178741    -0.74200
O16         O  0.16887999  0.29363309  0.64858941    -0.74100
O17         O  0.10962088  0.28760223  0.65283185    -0.73900
C18         C  0.02695205  0.17598471  0.66249301     0.77900
C19         C  0.06104298  0.12764114  0.57146089     0.78400
C20         C  0.05980154  0.26530285  0.57203533     0.77300
C21         C  0.19929277  0.26703170  0.57101290     0.77700
C22         C  0.15209539  0.18192155  0.65944796     0.78800
C23         C  0.14539678  0.30262387  0.66010475     0.77900
C24         C  0.22514132  0.11138143  0.74048325     0.46200
H25         H  0.22846744  0.11283843  0.71834140    -0.02800
C26         C  0.21774536  0.10867166  0.79169480     0.46300
H27         H  0.21449097  0.10791356  0.81380478    -0.02800
C28         C  0.26460718  0.12938778  0.75504970    -0.16500
C29         C  0.20470960  0.13351774  0.75088380    -0.16300
C30         C  0.20051630  0.06906646  0.75149489    -0.16600
C31         C  0.26080576  0.12712729  0.78228151    -0.16600
C32         C  0.20172779  0.13291784  0.77811977    -0.16200
C33         C  0.19591047  0.06762194  0.77863742    -0.16500
Zn34       Zn  0.08612172  0.25100003  0.90661568     1.49700
Zn35       Zn  0.08395753  0.16867457  0.90628474     1.49400
Zn36       Zn  0.16661756  0.24868452  0.90512174     1.49100
Zn37       Zn  0.11236759  0.22299126  0.95876923     1.49500
O38         O  0.11249769  0.22289481  0.91988352    -1.83400
O39         O  0.04581595  0.21908307  0.87941659    -0.74000
O40         O  0.11574625  0.16044849  0.87841905    -0.73800
O41         O  0.17319440  0.28865705  0.87724736    -0.73400
O42         O  0.03845134  0.15906091  0.88389266    -0.74000
O43         O  0.12110363  0.29627046  0.88356675    -0.73600
O44         O  0.17575760  0.21295426  0.88121292    -0.74200
O45         O  0.17126561  0.25260574  0.97122715    -0.73600
O46         O  0.06542127  0.12719190  0.93519920    -0.74400
O47         O  0.20840414  0.27170181  0.93403753    -0.73800
O48         O  0.08297175  0.16396595  0.97205596    -0.74200
O49         O  0.08275025  0.25226657  0.97233047    -0.74100
O50         O  0.06318117  0.26953455  0.93548628    -0.73900
C51         C  0.03055753  0.18322254  0.87216002     0.77900
C52         C  0.15105461  0.18098223  0.86976964     0.78400
C53         C  0.15192333  0.30343340  0.87043086     0.77300
C54         C  0.20532939  0.27005601  0.95946577     0.77700
C55         C  0.06650208  0.12999293  0.96051617     0.78800
C56         C  0.06502122  0.26854282  0.96080274     0.77900
Zn57       Zn  0.24731486  0.08190145  0.40126986     1.49700
Zn58       Zn  0.24639220  0.16333652  0.40228298     1.49400
Zn59       Zn  0.16535932  0.08060091  0.40230925     1.49100
Zn60       Zn  0.21936539  0.10819758  0.45465482     1.49500
O61         O  0.21968296  0.10851198  0.41571950    -1.83400
O62         O  0.28903148  0.11652517  0.37469232    -0.74000
O63         O  0.21226379  0.17128318  0.37664304    -0.73800
O64         O  0.15816193  0.04062055  0.37470038    -0.73400
O65         O  0.29028204  0.17400522  0.37736011    -0.74000
O66         O  0.21361699  0.03823667  0.37657691    -0.73600
O67         O  0.15445939  0.11540322  0.37958818    -0.74200
O68         O  0.16039704  0.07857006  0.46809869    -0.73600
O69         O  0.26609482  0.20450805  0.43132580    -0.74400
O70         O  0.12386302  0.05765201  0.43133668    -0.73800
O71         O  0.24855774  0.16698020  0.46818024    -0.74200
O72         O  0.24895861  0.07875643  0.46716281    -0.74100
O73         O  0.26898974  0.06183985  0.43010468    -0.73900
C74         C  0.30126981  0.15171942  0.36636903     0.77900
C75         C  0.17703544  0.14896615  0.36884189     0.78400
C76         C  0.18069436  0.02842675  0.36570967     0.77300
C77         C  0.12653472  0.06038813  0.45663276     0.77700
C78         C  0.26503271  0.20125347  0.45666508     0.78800
C79         C  0.26678591  0.06258709  0.45547545     0.77900
C80         C  0.10991138  0.22141430  0.28784666     0.46200
H81         H  0.10942576  0.22241120  0.31005122    -0.02800
C82         C  0.11135854  0.21945681  0.23648687     0.46300
H83         H  0.11210801  0.21869081  0.21428023    -0.02800
C84         C  0.06901324  0.20457123  0.27539162    -0.16500
C85         C  0.13521981  0.26225533  0.27499337    -0.16300
C86         C  0.12639742  0.19588633  0.27697272    -0.16600
C87         C  0.06967374  0.20269883  0.24812987    -0.16600
C88         C  0.13520243  0.26133576  0.24772249    -0.16200
C89         C  0.12805769  0.19566544  0.24970535    -0.16500
Zn90       Zn  0.27752728  0.13852959  0.10242985     1.49700
Zn91       Zn  0.22251719  0.10979040  0.14782452     1.49400
Zn92       Zn  0.19428659  0.13879995  0.10350825     1.49100
Zn93       Zn  0.19409684  0.05585503  0.10197541     1.49500
O94         O  0.22210554  0.11100882  0.11046008    -1.83400
O95         O  0.30908114  0.15265934  0.13721179    -0.74000
O96         O  0.17339961  0.10348629  0.16331387    -0.73800
O97         O  0.23194060  0.18858022  0.08230638    -0.73400
O98         O  0.26602341  0.15854497  0.16274560    -0.74000
O99         O  0.28948657  0.18866436  0.08187794    -0.73600
O100        O  0.18040333  0.15443433  0.13935938    -0.74200
O101        O  0.14489826  0.04444798  0.08128252    -0.73600
O102        O  0.22841999  0.06558837  0.16086147    -0.74400
O103        O  0.14401751  0.10153131  0.08292889    -0.73800
O104        O  0.17765982  0.02386166  0.13662488    -0.74200
O105        O  0.23145049  0.04360003  0.08104791    -0.74100
O106        O  0.28909970  0.10102148  0.08109383    -0.73900
C107        C  0.29977099  0.16204689  0.15941643     0.77900
C108        C  0.17062892  0.13438901  0.16114363     0.78400
C109        C  0.26859065  0.20448077  0.07573099     0.77300
C110        C  0.12866847  0.06518430  0.07581549     0.77700
C111        C  0.19736893  0.03227751  0.15819381     0.78800
C112        C  0.26817404  0.06440587  0.07474541     0.77900
Zn113      Zn  0.02785691  0.30643678  0.03197664     1.49700
Zn114      Zn  0.27803360  0.30584655  0.03123288     1.49400
Zn115      Zn  0.02765316  0.05532120  0.03186020     1.49100
Zn116      Zn  0.33416023  0.33381432  0.97869708     1.49500
O117        O  0.33354725  0.33365179  0.01812953    -1.83400
O118        O  0.32391861  0.25819227  0.05416106    -0.74000
O119        O  0.26629989  0.00930509  0.05306374    -0.73800
O120        O  0.07554897  0.06720315  0.05422029    -0.73400
O121        O  0.26634258  0.25720243  0.05327355    -0.74000
O122        O  0.07610666  0.01031033  0.05374258    -0.73600
O123        O  0.32351835  0.06644904  0.05326958    -0.74200
O124        O  0.03100545  0.05897983  0.96512245    -0.73600
O125        O  0.23867258  0.28641867  0.00102503    -0.74400
O126        O  0.04841196  0.09555089  0.00196627    -0.73800
O127        O  0.27630578  0.30555346  0.96430052    -0.74200
O128        O  0.02959817  0.30409678  0.96526027    -0.74100
O129        O  0.04793330  0.28595282  0.00223216    -0.73900
C130        C  0.28727787  0.24200657  0.06035854     0.77900
C131        C  0.28697801  0.04569391  0.05963960     0.78400
C132        C  0.09141341  0.04658775  0.06059016     0.77300
C133        C  0.04774779  0.09286745  0.97666978     0.77700
C134        C  0.24207217  0.28842358  0.97569410     0.78800
C135        C  0.04645544  0.28709048  0.97690549     0.77900
Zn136      Zn  0.30254808  0.02593997  0.52740752     1.49700
Zn137      Zn  0.30158062  0.27533965  0.52803265     1.49400
Zn138      Zn  0.33050794  0.33064124  0.47483395     1.49100
Zn139      Zn  0.05147003  0.02515274  0.52809877     1.49500
O140        O  0.32988325  0.33092080  0.51435142    -1.83400
O141        O  0.25288090  0.32192196  0.54893475    -0.74000
O142        O  0.28179872  0.23513448  0.49817542    -0.73800
O143        O  0.30228064  0.02707335  0.46036272    -0.73400
O144        O  0.25214930  0.26421950  0.54933302    -0.74000
O145        O  0.28335864  0.04565212  0.49699016    -0.73600
O146        O  0.30085632  0.27231021  0.46125522    -0.74200
O147        O  0.09187877  0.04476546  0.49811082    -0.73600
O148        O  0.00511556  0.26347218  0.55010901    -0.74400
O149        O  0.05563607  0.02535198  0.46126131    -0.73800
O150        O  0.06250612  0.32060273  0.54980347    -0.74200
O151        O  0.06289277  0.07426161  0.54982158    -0.74100
O152        O  0.00636335  0.07538721  0.54889885    -0.73900
C153        C  0.23648527  0.28522464  0.55535174     0.77900
C154        C  0.28350312  0.23816914  0.47283995     0.78400
C155        C  0.28518283  0.04415163  0.47170104     0.77300
C156        C  0.08938386  0.04245473  0.47281050     0.77700
C157        C  0.04157838  0.28402397  0.55635675     0.78800
C158        C  0.04253482  0.09068713  0.55572472     0.77900
C159        C  0.03618455  0.18662158  0.22971194    -0.04700
C160        C  0.03405527  0.15866255  0.21121324    -0.32200
C161        C  0.01282865  0.15179371  0.18771507     0.37100
C162        C  0.32570883  0.17235630  0.18269590    -0.05100
C163        C  0.99243167  0.19858326  0.20203710    -0.32100
C164        C  0.01456579  0.20609570  0.22538820     0.37000
H165        H  0.05093755  0.14375437  0.21429756     0.17400
O166        O  0.34460519  0.12400642  0.17018253    -0.59500
H167        H  0.30933656  0.21390103  0.19872966     0.17400
O168        O  0.01740207  0.23464854  0.24269308    -0.59600
H169        H  0.99474649  0.22048442  0.25529041     0.44400
H170        H  0.03601958  0.13807492  0.15938666     0.44300
C171        C  0.15227341  0.29488569  0.22895137    -0.04700
C172        C  0.12641003  0.29555206  0.20997954    -0.32200
C173        C  0.14079310  0.31684509  0.18626989     0.37100
C174        C  0.18192321  0.00595318  0.18161981    -0.05100
C175        C  0.20801521  0.34059854  0.20138950    -0.32100
C176        C  0.19335013  0.31808914  0.22489882     0.37000
H177        H  0.09463498  0.27734392  0.21283902     0.17400
O178        O  0.11436195  0.31628202  0.16809971    -0.59500
H179        H  0.23979554  0.02511624  0.19835753     0.17400
O180        O  0.21913704  0.31667527  0.24271648    -0.59600
H181        H  0.22769294  0.34029707  0.25417218     0.44400
H182        H  0.10611565  0.29196084  0.15743759     0.44300
C183        C  0.14526608  0.17772533  0.23249241    -0.04700
C184        C  0.17547915  0.20369285  0.21499630    -0.32200
C185        C  0.18324324  0.18984571  0.19145468     0.37100
C186        C  0.16085653  0.14928090  0.18521458    -0.05100
C187        C  0.13272673  0.12266313  0.20379063    -0.32100
C188        C  0.12453919  0.13680499  0.22729703     0.37000
H189        H  0.19123621  0.23538972  0.21871843     0.17400
O190        O  0.21256086  0.21630805  0.17455762    -0.59500
H191        H  0.11620361  0.09113567  0.19960955     0.17400
O192        O  0.09409879  0.11106407  0.24376710    -0.59600
H193        H  0.10685845  0.10345152  0.25784315     0.44400
H194        H  0.23705739  0.21684882  0.18046247     0.44300
C195        C  0.17052040  0.00531915  0.34073570    -0.04700
C196        C  0.19173119  0.31956692  0.33362800    -0.32200
C197        C  0.18416293  0.29890233  0.30972691     0.36100
C198        C  0.15497148  0.29680937  0.29245904    -0.05100
C199        C  0.13562519  0.31796308  0.29845124    -0.32100
C200        C  0.14319812  0.33888081  0.32242049     0.37000
H201        H  0.21360265  0.98643309  0.34690684     0.17400
O202        O  0.20305353  0.27790609  0.30446030    -0.59500
H203        H  0.11253348  0.31586394  0.28548281     0.17400
O204        O  0.12385484  0.35951410  0.32758381    -0.59600
H205        H  0.09755391  0.33950120  0.33488494     0.44400
H206        H  0.22839121  0.29715833  0.29561617     0.44300
C207        C  0.03474292  0.19121240  0.29330495    -0.04700
C208        C  0.03642053  0.21894688  0.31181050    -0.32200
C209        C  0.34862330  0.20660326  0.33581671     0.37100
C210        C  0.32542588  0.16574530  0.34171425    -0.05100
C211        C  0.98826915  0.13794170  0.32226903    -0.32100
C212        C  0.00939573  0.15052283  0.29809151     0.37000
H213        H  0.05658373  0.25038244  0.30849190     0.17400
O214        O  0.35292023  0.23471277  0.35406161    -0.59500
H215        H  0.96904989  0.10638941  0.32584863     0.17400
O216        O  0.00645309  0.12297362  0.27979847    -0.59600
H217        H  0.02309686  0.11235384  0.28671817     0.44400
H218        H  0.33562176  0.24491563  0.34768172     0.44300
C219        C  0.13863523  0.17564688  0.29608003    -0.04700
C220        C  0.11086715  0.15258628  0.31589166    -0.32200
C221        C  0.12292324  0.14444045  0.33999999     0.37100
C222        C  0.16350104  0.15979284  0.34465676    -0.05100
C223        C  0.19120473  0.18119322  0.32422579    -0.32100
C224        C  0.17888941  0.18877284  0.29987605     0.37000
H225        H  0.07989165  0.14334876  0.31346989     0.17400
O226        O  0.09508419  0.12369926  0.35949701    -0.59500
H227        H  0.22248171  0.19197702  0.32709194     0.17400
O228        O  0.20662591  0.21188458  0.28095190    -0.59600
H229        H  0.21083160  0.19303998  0.27004434     0.44400
H230        H  0.08276015  0.09538836  0.35430814     0.44300
C231        C  0.29247342  0.14044512  0.80225582    -0.04700
C232        C  0.32175956  0.18055344  0.80363042    -0.32200
C233        C  0.01137154  0.19536267  0.82664801     0.37100
C234        C  0.00539243  0.16959735  0.84840656    -0.05100
C235        C  0.31129279  0.12915905  0.84612542    -0.32100
C236        C  0.28807889  0.11462921  0.82348798     0.37000
H237        H  0.32528316  0.20085126  0.78760247     0.17400
O238        O  0.04021460  0.23468011  0.82735451    -0.59500
H239        H  0.30716562  0.10865274  0.86220810     0.17400
O240        O  0.26074373  0.07495221  0.82239004    -0.59600
H241        H  0.24114573  0.07010298  0.83677895     0.44400
H242        H  0.02622936  0.24910030  0.83255669     0.44300
C243        C  0.17438030  0.03248123  0.79591517    -0.04700
C244        C  0.14892456  0.03437716  0.81493920    -0.32200
C245        C  0.14242063  0.34874487  0.83953248     0.37100
C246        C  0.16034544  0.32580925  0.84510854    -0.05100
C247        C  0.18220095  0.98672941  0.82470733    -0.32100
C248        C  0.18915939  0.00657168  0.80010488     0.37000
H249        H  0.13718877  0.05405001  0.81180348     0.17400
O250        O  0.11975464  0.35417908  0.85829139    -0.59500
H251        H  0.19444165  0.96745035  0.82797310     0.17400
O252        O  0.21244999  0.00253403  0.78110497    -0.59600
H253        H  0.24016448  0.02172773  0.78594506     0.44400
H254        H  0.13852384  0.37853571  0.86800723     0.44300
C255        C  0.18585383  0.15242489  0.79508434    -0.04700
C256        C  0.14659188  0.12997800  0.80399038    -0.32200
C257        C  0.13477905  0.13834883  0.82842600     0.37100
C258        C  0.16266945  0.16982146  0.84438616    -0.05100
C259        C  0.20127388  0.19398711  0.83425086    -0.32100
C260        C  0.21295340  0.18531110  0.80993228     0.37000
H261        H  0.12573149  0.10408742  0.79290204     0.17400
O262        O  0.09628917  0.11462480  0.83682749    -0.59500
H263        H  0.22297503  0.21923367  0.84545011     0.17400
O264        O  0.25158544  0.20781294  0.80137822    -0.59600
H265        H  0.26768748  0.20422498  0.81514212     0.44400
H266        H  0.08129861  0.12608054  0.82832329     0.44300
C267        C  0.00479248  0.16450061  0.68817362    -0.04700
C268        C  0.99574721  0.19149365  0.70051158    -0.32200
C269        C  0.31077361  0.18324435  0.72558586     0.37100
C270        C  0.30081198  0.14748400  0.73875535    -0.05100
C271        C  0.31260882  0.12200203  0.72769097    -0.32100
C272        C  0.33046258  0.12979001  0.70236235     0.37000
H273        H  0.00225535  0.21895066  0.69058633     0.17400
O274        O  0.29887499  0.20830432  0.73585969    -0.59500
H275        H  0.30458889  0.09411640  0.73761189     0.17400
O276        O  0.33913395  0.10266170  0.69146700    -0.59600
H277        H  0.31462796  0.08321421  0.68224244     0.44400
H278        H  0.98974418  0.23077420  0.74350838     0.44300
C279        C  0.18468868  0.03589293  0.73260770    -0.04700
C280        C  0.21191978  0.03502226  0.71469583    -0.32200
C281        C  0.19975399  0.01479192  0.69070826     0.37100
C282        C  0.15922128  0.32760407  0.68421931    -0.05100
C283        C  0.13148403  0.32644720  0.70299756    -0.32100
C284        C  0.14403575  0.01377409  0.72717726     0.37000
H285        H  0.24326246  0.05215575  0.71860274     0.17400
O286        O  0.22809345  0.01682965  0.67329612    -0.59500
H287        H  0.10002748  0.30939967  0.69903120     0.17400
O288        O  0.11677410  0.01296010  0.74511083    -0.59600
H289        H  0.10210635  0.35724642  0.73551580     0.44400
H290        H  0.23525671  0.99730422  0.68018054     0.44300
C291        C  0.16522430  0.16947230  0.68335907    -0.04700
C292        C  0.19211237  0.19851597  0.70102220    -0.32200
C293        C  0.20236351  0.18753745  0.72504048     0.37100
C294        C  0.18596349  0.14719690  0.73150672    -0.05100
C295        C  0.15836472  0.11842574  0.71437837    -0.32100
C296        C  0.14783173  0.12907524  0.69057632     0.37000
H297        H  0.20516554  0.22984797  0.69630019     0.17400
O298        O  0.23002170  0.21624083  0.74119698    -0.59500
H299        H  0.14651070  0.08726104  0.71876912     0.17400
O300        O  0.12197229  0.09960813  0.67397805    -0.59600
H301        H  0.09526122  0.09056509  0.68171708     0.44400
H302        H  0.21476048  0.22423056  0.75305288     0.44300
Zn303      Zn  0.07734042  0.57799796  0.62656216     1.49700
Zn304      Zn  0.08275648  0.49894458  0.62583971     1.49400
Zn305      Zn  0.10702426  0.55354367  0.57300425     1.49100
Zn306      Zn  0.16082456  0.58284903  0.62533159     1.49500
O307        O  0.10680220  0.55332932  0.61207594    -1.83400
O308        O  0.03386686  0.54149662  0.65119382    -0.74000
O309        O  0.06055567  0.45790781  0.59679873    -0.73800
O310        O  0.07800238  0.58315425  0.56012311    -0.73400
O311        O  0.04210860  0.48923178  0.65372824    -0.74000
O312        O  0.05686203  0.59852880  0.59739093    -0.73600
O313        O  0.07740606  0.49494609  0.55965036    -0.74200
O314        O  0.20184989  0.60277396  0.59626004    -0.73600
O315        O  0.11984481  0.49065248  0.64840592    -0.74400
O316        O  0.16566591  0.58273011  0.55928115    -0.73800
O317        O  0.17147173  0.55121745  0.65178623    -0.74200
O318        O  0.16890398  0.62697553  0.64856935    -0.74100
O319        O  0.10963947  0.62093311  0.65282670    -0.73900
C320        C  0.02697873  0.50931642  0.66251671     0.77900
C321        C  0.06104904  0.46096893  0.57146475     0.78400
C322        C  0.05976389  0.59861991  0.57204293     0.77300
C323        C  0.19927680  0.60036555  0.57098979     0.77700
C324        C  0.15211553  0.51524265  0.65943279     0.78800
C325        C  0.14542050  0.63596240  0.66009036     0.77900
C326        C  0.22517585  0.44471700  0.74048944     0.46200
H327        H  0.22851165  0.44616318  0.71834825    -0.02800
C328        C  0.21775835  0.44203739  0.79169893     0.46300
H329        H  0.21448996  0.44129094  0.81380717    -0.02800
C330        C  0.26463186  0.46271072  0.75506451    -0.16500
C331        C  0.20475611  0.46687589  0.75087439    -0.16300
C332        C  0.20053696  0.40240991  0.75150752    -0.16600
C333        C  0.26082223  0.46047706  0.78229501    -0.16600
C334        C  0.20176183  0.46628913  0.77810899    -0.16200
C335        C  0.19591512  0.40098225  0.77864917    -0.16500
Zn336      Zn  0.08619920  0.58437918  0.90662516     1.49700
Zn337      Zn  0.08397256  0.50201596  0.90629695     1.49400
Zn338      Zn  0.16663045  0.58198102  0.90513142     1.49100
Zn339      Zn  0.11238572  0.55632368  0.95878913     1.49500
O340        O  0.11252584  0.55622938  0.91989940    -1.83400
O341        O  0.04597875  0.55251309  0.87935878    -0.74000
O342        O  0.11573631  0.49376642  0.87841063    -0.73800
O343        O  0.17318892  0.62191727  0.87723189    -0.73400
O344        O  0.03847261  0.49244180  0.88391173    -0.74000
O345        O  0.12123702  0.62972800  0.88364534    -0.73600
O346        O  0.17577046  0.54622538  0.88124085    -0.74200
O347        O  0.17127171  0.58594562  0.97124979    -0.73600
O348        O  0.06543647  0.46053977  0.93522630    -0.74400
O349        O  0.20840361  0.60501802  0.93405559    -0.73800
O350        O  0.08301233  0.49730963  0.97208566    -0.74200
O351        O  0.08275533  0.58557911  0.97235208    -0.74100
O352        O  0.06319162  0.60284358  0.93550297    -0.73900
C353        C  0.03066721  0.51663463  0.87213047     0.77900
C354        C  0.15105689  0.51427763  0.86977689     0.78400
C355        C  0.15197939  0.63678018  0.87045370     0.77300
C356        C  0.20533184  0.60338686  0.95948464     0.77700
C357        C  0.06653119  0.46333840  0.96054471     0.78800
C358        C  0.06502127  0.60184645  0.96082060     0.77900
Zn359      Zn  0.24737043  0.41525721  0.40128124     1.49700
Zn360      Zn  0.24642725  0.49668368  0.40227226     1.49400
Zn361      Zn  0.16539840  0.41394688  0.40231104     1.49100
Zn362      Zn  0.21939735  0.44154431  0.45465019     1.49500
O363        O  0.21972464  0.44186223  0.41571726    -1.83400
O364        O  0.28910965  0.44988542  0.37472378    -0.74000
O365        O  0.21229864  0.50461632  0.37662821    -0.73800
O366        O  0.15821220  0.37396520  0.37471504    -0.73400
O367        O  0.29033968  0.50735851  0.37736186    -0.74000
O368        O  0.21367520  0.37159290  0.37658120    -0.73600
O369        O  0.15448779  0.44874455  0.37958711    -0.74200
O370        O  0.16042789  0.41191997  0.46809266    -0.73600
O371        O  0.26608040  0.53785436  0.43131133    -0.74400
O372        O  0.12389386  0.39097923  0.43133304    -0.73800
O373        O  0.24856673  0.50032358  0.46816454    -0.74200
O374        O  0.24900112  0.41211284  0.46717145    -0.74100
O375        O  0.26904301  0.39520059  0.43011749    -0.73900
C376        C  0.30134023  0.48507142  0.36638693     0.77900
C377        C  0.17706478  0.48230473  0.36883667     0.78400
C378        C  0.18074427  0.36177345  0.36572172     0.77300
C379        C  0.12656505  0.39372555  0.45662846     0.77700
C380        C  0.26501887  0.53459591  0.45665036     0.78800
C381        C  0.26683432  0.39594615  0.45548740     0.77900
C382        C  0.10987330  0.55468959  0.28782963     0.46200
H383        H  0.10937740  0.55569128  0.31003378    -0.02800
C384        C  0.11134332  0.55272759  0.23647064     0.46300
H385        H  0.11209750  0.55195503  0.21426449    -0.02800
C386        C  0.06897694  0.53781066  0.27536788    -0.16500
C387        C  0.13516114  0.59553471  0.27497533    -0.16300
C388        C  0.12639596  0.52918840  0.27696606    -0.16600
C389        C  0.06964835  0.53593677  0.24810811    -0.16600
C390        C  0.13515833  0.59461369  0.24770384    -0.16200
C391        C  0.12807849  0.52897445  0.24969926    -0.16500
Zn392      Zn  0.27750091  0.47184226  0.10242883     1.49700
Zn393      Zn  0.22248781  0.44308684  0.14781229     1.49400
Zn394      Zn  0.19428281  0.47212617  0.10350322     1.49100
Zn395      Zn  0.19405858  0.38917166  0.10198559     1.49500
O396        O  0.22208204  0.44432703  0.11045043    -1.83400
O397        O  0.30902952  0.48593113  0.13721224    -0.74000
O398        O  0.17335868  0.43675677  0.16329571    -0.73800
O399        O  0.23195933  0.52190940  0.08229784    -0.73400
O400        O  0.26598085  0.49184304  0.16273831    -0.74000
O401        O  0.28950492  0.52199388  0.08189094    -0.73600
O402        O  0.18042627  0.48775085  0.13936710    -0.74200
O403        O  0.14486193  0.37775197  0.08130004    -0.73600
O404        O  0.22841272  0.39889172  0.16083846    -0.74400
O405        O  0.14399582  0.43484309  0.08293970    -0.73800
O406        O  0.17760003  0.35718893  0.13663723    -0.74200
O407        O  0.23140816  0.37691549  0.08106110    -0.74100
O408        O  0.28905620  0.43434185  0.08108503    -0.73900
C409        C  0.29971896  0.49531975  0.15941564     0.77900
C410        C  0.17063568  0.46768852  0.16114494     0.78400
C411        C  0.26861545  0.53781229  0.07573485     0.77300
C412        C  0.12863462  0.39849016  0.07583559     0.77700
C413        C  0.19733367  0.36559819  0.15819395     0.78800
C414        C  0.26812655  0.39772418  0.07474500     0.77900
Zn415      Zn  0.02788823  0.63976939  0.03198770     1.49700
Zn416      Zn  0.27807279  0.63917751  0.03123325     1.49400
Zn417      Zn  0.02762493  0.38864263  0.03188546     1.49100
Zn418      Zn  0.33416350  0.66712514  0.97869538     1.49500
O419        O  0.33358104  0.66698265  0.01812725    -1.83400
O420        O  0.32396771  0.59154353  0.05419448    -0.74000
O421        O  0.26624030  0.34262761  0.05305538    -0.73800
O422        O  0.07549985  0.40050288  0.05426170    -0.73400
O423        O  0.26637828  0.59051961  0.05325269    -0.74000
O424        O  0.07607332  0.34361955  0.05375944    -0.73600
O425        O  0.32347053  0.39976067  0.05327945    -0.74200
O426        O  0.03100187  0.39232683  0.96514810    -0.73600
O427        O  0.23868619  0.61976737  0.00104025    -0.74400
O428        O  0.04843186  0.42888881  0.00199594    -0.73800
O429        O  0.27630531  0.63885810  0.96431070    -0.74200
O430        O  0.02959779  0.63739917  0.96527255    -0.74100
O431        O  0.04793380  0.61925899  0.00224738    -0.73900
C432        C  0.28731611  0.57534041  0.06036468     0.77900
C433        C  0.28692477  0.37901182  0.05963798     0.78400
C434        C  0.09137266  0.37989110  0.06061885     0.77300
C435        C  0.04776638  0.42621145  0.97669834     0.77700
C436        C  0.24207650  0.62175324  0.97570903     0.78800
C437        C  0.04645132  0.62039097  0.97692068     0.77900
Zn438      Zn  0.30257926  0.35926526  0.52741070     1.49700
Zn439      Zn  0.30156544  0.60867247  0.52802038     1.49400
Zn440      Zn  0.33047927  0.66396912  0.47482165     1.49100
Zn441      Zn  0.05150994  0.35848763  0.52809964     1.49500
O442        O  0.32986670  0.66425377  0.51433909    -1.83400
O443        O  0.25285009  0.65525472  0.54889168    -0.74000
O444        O  0.28177692  0.56846730  0.49816275    -0.73800
O445        O  0.30232480  0.36042526  0.46037500    -0.73400
O446        O  0.25214674  0.59756547  0.54932381    -0.74000
O447        O  0.28338964  0.37898988  0.49700193    -0.73600
O448        O  0.30082445  0.60564647  0.46124418    -0.74200
O449        O  0.09191380  0.37812211  0.49810779    -0.73600
O450        O  0.00508580  0.59679206  0.55010348    -0.74400
O451        O  0.05566388  0.35866364  0.46126262    -0.73800
O452        O  0.06247658  0.65391971  0.54980458    -0.74200
O453        O  0.06291706  0.40758712  0.54983674    -0.74100
O454        O  0.00638673  0.40871031  0.54889696    -0.73900
C455        C  0.23646716  0.61856256  0.55532424     0.77900
C456        C  0.28347621  0.57150576  0.47282743     0.78400
C457        C  0.28522533  0.37750287  0.47171320     0.77300
C458        C  0.08941473  0.37578977  0.47280824     0.77700
C459        C  0.04154459  0.61734253  0.55636023     0.78800
C460        C  0.04255406  0.42401181  0.55573098     0.77900
C461        C  0.03615775  0.51986478  0.22969249    -0.04700
C462        C  0.03401283  0.49190316  0.21119103    -0.32200
C463        C  0.01276217  0.48503096  0.18770340     0.37100
C464        C  0.32564629  0.50560157  0.18269697    -0.05100
C465        C  0.99238224  0.53182698  0.20204340    -0.32100
C466        C  0.01453122  0.53933545  0.22538551     0.37000
H467        H  0.05089655  0.47699373  0.21426581     0.17400
O468        O  0.34451933  0.45724054  0.17016558    -0.59500
H469        H  0.30928971  0.54714975  0.19874554     0.17400
O470        O  0.01737328  0.56788263  0.24269764    -0.59600
H471        H  0.99482363  0.55367985  0.25536898     0.44400
H472        H  0.03592685  0.47130446  0.15936237     0.44300
C473        C  0.15223239  0.62816325  0.22892875    -0.04700
C474        C  0.12638518  0.62879400  0.20992872    -0.32200
C475        C  0.14079033  0.65012156  0.18623361     0.37100
C476        C  0.18189618  0.33929127  0.18162923    -0.05100
C477        C  0.20799790  0.67393567  0.20140516    -0.32100
C478        C  0.19331296  0.65143622  0.22491763     0.37000
H479        H  0.09460850  0.61055553  0.21276387     0.17400
O480        O  0.11437614  0.64959187  0.16806259    -0.59500
H481        H  0.23978104  0.35841377  0.19833003     0.17400
O482        O  0.21909370  0.65013513  0.24279377    -0.59600
H483        H  0.22762837  0.67381775  0.25418508     0.44400
H484        H  0.10612245  0.62527941  0.15738939     0.44300
C485        C  0.14532475  0.51106046  0.23249719    -0.04700
C486        C  0.17550080  0.53702909  0.21497825    -0.32200
C487        C  0.18326308  0.52316642  0.19144266     0.37100
C488        C  0.16090027  0.48259018  0.18522739    -0.05100
C489        C  0.13282292  0.45597773  0.20383131    -0.32100
C490        C  0.12465245  0.47013232  0.22733820     0.37000
H491        H  0.19122518  0.56873231  0.21867762     0.17400
O492        O  0.21254987  0.54962417  0.17452557    -0.59500
H493        H  0.11632535  0.42444223  0.19967342     0.17400
O494        O  0.09427669  0.44439066  0.24384912    -0.59600
H495        H  0.10705162  0.43650613  0.25774990     0.44400
H496        H  0.23707097  0.55022079  0.18043582     0.44300
C497        C  0.17055324  0.33865622  0.34075230    -0.04700
C498        C  0.19168764  0.65287228  0.33359957    -0.32200
C499        C  0.18411707  0.63220756  0.30969801     0.36100
C500        C  0.15490351  0.63009018  0.29244135    -0.05100
C501        C  0.13554806  0.65123332  0.29843887    -0.32100
C502        C  0.14314031  0.67217082  0.32240120     0.37000
H503        H  0.21362872  0.31976083  0.34691450     0.17400
O504        O  0.20304254  0.61124940  0.30441461    -0.59500
H505        H  0.11244745  0.64912445  0.28547545     0.17400
O506        O  0.12382045  0.69282921  0.32755668    -0.59600
H507        H  0.09752501  0.67283787  0.33487735     0.44400
H508        H  0.22830924  0.63049124  0.29548880     0.44300
C509        C  0.03470039  0.52445975  0.29327474    -0.04700
C510        C  0.03636627  0.55222143  0.31175128    -0.32200
C511        C  0.34862014  0.53991508  0.33577716     0.37100
C512        C  0.32547626  0.49906715  0.34172206    -0.05100
C513        C  0.98831435  0.47123107  0.32230077    -0.32100
C514        C  0.00938623  0.48377494  0.29810100     0.37000
H515        H  0.05649116  0.58365567  0.30839556     0.17400
O516        O  0.35290829  0.56805875  0.35398896    -0.59500
H517        H  0.96912383  0.43968238  0.32591214     0.17400
O518        O  0.00641251  0.45619935  0.27981934    -0.59600
H519        H  0.02295554  0.44548695  0.28678073     0.44400
H520        H  0.33539087  0.57804096  0.34768495     0.44300
C521        C  0.13863664  0.50896111  0.29608165    -0.04700
C522        C  0.11087879  0.48593642  0.31590958    -0.32200
C523        C  0.12294886  0.47782459  0.34002454     0.37100
C524        C  0.16352472  0.49313427  0.34465723    -0.05100
C525        C  0.19121490  0.51449296  0.32421068    -0.32100
C526        C  0.17888972  0.52206914  0.29986419     0.37000
H527        H  0.07990420  0.47671354  0.31349598     0.17400
O528        O  0.09513395  0.45717776  0.35955471    -0.59500
H529        H  0.22248986  0.52525217  0.32706383     0.17400
O530        O  0.20661800  0.54516391  0.28093075    -0.59600
H531        H  0.21088459  0.52632038  0.27006759     0.44400
H532        H  0.08268906  0.42885470  0.35437348     0.44300
C533        C  0.29248954  0.47380670  0.80227028    -0.04700
C534        C  0.32184904  0.51389633  0.80359156    -0.32200
C535        C  0.01151334  0.52872711  0.82658682     0.37100
C536        C  0.00550506  0.50300037  0.84837570    -0.05100
C537        C  0.31132990  0.46257594  0.84614537    -0.32100
C538        C  0.28806456  0.44802778  0.82353413     0.37000
H539        H  0.32539781  0.53416791  0.78753941     0.17400
O540        O  0.04042652  0.56802187  0.82724440    -0.59500
H541        H  0.30717370  0.44209626  0.86225318     0.17400
O542        O  0.26064908  0.40836877  0.82249523    -0.59600
H543        H  0.24108004  0.40361701  0.83688441     0.44400
H544        H  0.02649826  0.58252247  0.83238579     0.44300
C545        C  0.17437467  0.36585211  0.79593319    -0.04700
C546        C  0.14888785  0.36774016  0.81493625    -0.32200
C547        C  0.14243825  0.68205104  0.83953366     0.37100
C548        C  0.16037448  0.65912709  0.84511761    -0.05100
C549        C  0.18216731  0.32010523  0.82474599    -0.32100
C550        C  0.18915885  0.33995062  0.80014582     0.37000
H551        H  0.13715327  0.38741107  0.81178485     0.17400
O552        O  0.11978208  0.68750267  0.85829086    -0.59500
H553        H  0.19441458  0.30083543  0.82802846     0.17400
O554        O  0.21248570  0.33591512  0.78117455    -0.59600
H555        H  0.24015900  0.35564132  0.78574251     0.44400
H556        H  0.13856662  0.71183614  0.86802154     0.44300
C557        C  0.18588441  0.48580376  0.79506441    -0.04700
C558        C  0.14661357  0.46336119  0.80395544    -0.32200
C559        C  0.13479360  0.47169236  0.82840373     0.37100
C560        C  0.16268154  0.50313083  0.84438817    -0.05100
C561        C  0.20129845  0.52729200  0.83427000    -0.32100
C562        C  0.21298414  0.51865631  0.80993845     0.37000
H563        H  0.12575362  0.43749252  0.79284863     0.17400
O564        O  0.09630222  0.44795311  0.83679672    -0.59500
H565        H  0.22300239  0.55250942  0.84548983     0.17400
O566        O  0.25162076  0.54116580  0.80139317    -0.59600
H567        H  0.26771854  0.53755449  0.81514898     0.44400
H568        H  0.08132383  0.45946004  0.82834316     0.44300
C569        C  0.00481777  0.49782346  0.68819698    -0.04700
C570        C  0.99577892  0.52481667  0.70054142    -0.32200
C571        C  0.31080959  0.51656415  0.72561665     0.37100
C572        C  0.30084069  0.48079841  0.73877836    -0.05100
C573        C  0.31262388  0.45530992  0.72770702    -0.32100
C574        C  0.33047380  0.46310110  0.70237638     0.37000
H575        H  0.00228908  0.55227703  0.69062044     0.17400
O576        O  0.29890615  0.54161827  0.73589509    -0.59500
H577        H  0.30459503  0.42741864  0.73762297     0.17400
O578        O  0.33912551  0.43596599  0.69146797    -0.59600
H579        H  0.31452318  0.41637347  0.68240408     0.44400
H580        H  0.98978913  0.56412830  0.74349771     0.44300
C581        C  0.18470295  0.36922925  0.73262380    -0.04700
C582        C  0.21193049  0.36832935  0.71472193    -0.32200
C583        C  0.19976640  0.34811587  0.69072651     0.37100
C584        C  0.15924576  0.66093948  0.68420563    -0.05100
C585        C  0.13150644  0.65976475  0.70298935    -0.32100
C586        C  0.14405447  0.34715574  0.72717435     0.37000
H587        H  0.24327103  0.38542698  0.71864333     0.17400
O588        O  0.22810298  0.35011619  0.67332687    -0.59500
H589        H  0.10005007  0.64271811  0.69902226     0.17400
O590        O  0.11679524  0.34635775  0.74510300    -0.59600
H591        H  0.10208856  0.69051357  0.73548502     0.44400
H592        H  0.23528484  0.33062212  0.68024687     0.44300
C593        C  0.16525799  0.50280440  0.68334254    -0.04700
C594        C  0.19214160  0.53185629  0.70100452    -0.32200
C595        C  0.20240708  0.52088764  0.72502103     0.37100
C596        C  0.18601846  0.48054921  0.73148836    -0.05100
C597        C  0.15842764  0.45177158  0.71436110    -0.32100
C598        C  0.14788818  0.46240960  0.69055797     0.37000
H599        H  0.20518291  0.56318680  0.69628189     0.17400
O600        O  0.23006876  0.54959743  0.74117280    -0.59500
H601        H  0.14658692  0.42061037  0.71875219     0.17400
O602        O  0.12205288  0.43293506  0.67395406    -0.59600
H603        H  0.09534274  0.42378046  0.68173299     0.44400
H604        H  0.21481338  0.55760831  0.75301744     0.44300
Zn605      Zn  0.07732088  0.91131399  0.62655489     1.49700
Zn606      Zn  0.08274859  0.83227153  0.62583526     1.49400
Zn607      Zn  0.10699030  0.88685976  0.57299869     1.49100
Zn608      Zn  0.16080591  0.91617603  0.62533190     1.49500
O609        O  0.10678416  0.88665015  0.61206975    -1.83400
O610        O  0.03382752  0.87481123  0.65116906    -0.74000
O611        O  0.06059483  0.79122624  0.59679895    -0.73800
O612        O  0.07796789  0.91647838  0.56011416    -0.73400
O613        O  0.04209354  0.82256248  0.65371850    -0.74000
O614        O  0.05687496  0.93188812  0.59738842    -0.73600
O615        O  0.07736946  0.82826071  0.55965147    -0.74200
O616        O  0.20181936  0.93612401  0.59625920    -0.73600
O617        O  0.11982429  0.82399550  0.64841302    -0.74400
O618        O  0.16563408  0.91602878  0.55928137    -0.73800
O619        O  0.17147841  0.88454539  0.65177926    -0.74200
O620        O  0.16888211  0.96029573  0.64857179    -0.74100
O621        O  0.10960018  0.95420337  0.65284713    -0.73900
C622        C  0.02695845  0.84264505  0.66250325     0.77900
C623        C  0.06105525  0.79428513  0.57146595     0.78400
C624        C  0.05975335  0.93196609  0.57203960     0.77300
C625        C  0.19924472  0.93368830  0.57099009     0.77700
C626        C  0.15210851  0.84857196  0.65942866     0.78800
C627        C  0.14538392  0.96924972  0.66010637     0.77900
C628        C  0.22515749  0.77800925  0.74048396     0.46200
H629        H  0.22849735  0.77945438  0.71834312    -0.02800
C630        C  0.21772353  0.77532644  0.79169305     0.46300
H631        H  0.21445341  0.77458008  0.81380147    -0.02800
C632        C  0.26461457  0.79604980  0.75506134    -0.16500
C633        C  0.20469129  0.80012508  0.75086073    -0.16300
C634        C  0.20055243  0.73569978  0.75150597    -0.16600
C635        C  0.26079579  0.79381095  0.78229256    -0.16600
C636        C  0.20168315  0.79953536  0.77809448    -0.16200
C637        C  0.19591991  0.73426733  0.77864627    -0.16500
Zn638      Zn  0.08622247  0.91770777  0.90660722     1.49700
Zn639      Zn  0.08398586  0.83534328  0.90627284     1.49400
Zn640      Zn  0.16666818  0.91531120  0.90510781     1.49100
Zn641      Zn  0.11239937  0.88964233  0.95876217     1.49500
O642        O  0.11254995  0.88955706  0.91987434    -1.83400
O643        O  0.04592476  0.88582522  0.87938772    -0.74000
O644        O  0.11575307  0.82711266  0.87839505    -0.73800
O645        O  0.17326033  0.95525905  0.87720703    -0.73400
O646        O  0.03849000  0.82577600  0.88388258    -0.74000
O647        O  0.12126290  0.96300530  0.88359375    -0.73600
O648        O  0.17580620  0.87954542  0.88122222    -0.74200
O649        O  0.17129262  0.91928268  0.97122457    -0.73600
O650        O  0.06544517  0.79384391  0.93518763    -0.74400
O651        O  0.20843341  0.93836377  0.93403383    -0.73800
O652        O  0.08302401  0.83061680  0.97204490    -0.74200
O653        O  0.08275040  0.91888453  0.97232892    -0.74100
O654        O  0.06325882  0.93622225  0.93548006    -0.73900
C655        C  0.03062732  0.84995556  0.87214174     0.77900
C656        C  0.15107192  0.84760613  0.86975802     0.78400
C657        C  0.15203218  0.97009679  0.87042060     0.77300
C658        C  0.20535600  0.93673439  0.95946233     0.77700
C659        C  0.06654140  0.79664355  0.96050588     0.78800
C660        C  0.06505047  0.93518837  0.96079787     0.77900
Zn661      Zn  0.24732716  0.74856217  0.40125869     1.49700
Zn662      Zn  0.24640262  0.83000661  0.40226770     1.49400
Zn663      Zn  0.16536609  0.74725503  0.40229341     1.49100
Zn664      Zn  0.21937627  0.77487358  0.45463478     1.49500
O665        O  0.21969243  0.77517802  0.41570254    -1.83400
O666        O  0.28907716  0.78319114  0.37471270    -0.74000
O667        O  0.21226733  0.83796719  0.37664404    -0.73800
O668        O  0.15816000  0.70725307  0.37470155    -0.73400
O669        O  0.29029118  0.84065719  0.37735095    -0.74000
O670        O  0.21364017  0.70491252  0.37654733    -0.73600
O671        O  0.15448492  0.78205353  0.37955614    -0.74200
O672        O  0.16039938  0.74523988  0.46807557    -0.73600
O673        O  0.26611893  0.87119091  0.43129913    -0.74400
O674        O  0.12385878  0.72431962  0.43131673    -0.73800
O675        O  0.24856347  0.83366262  0.46815256    -0.74200
O676        O  0.24899090  0.74544788  0.46714427    -0.74100
O677        O  0.26900219  0.72850316  0.43008996    -0.73900
C678        C  0.30131089  0.81838081  0.36638430     0.77900
C679        C  0.17704721  0.81563748  0.36883213     0.78400
C680        C  0.18069951  0.69507632  0.36569766     0.77300
C681        C  0.12653387  0.72705711  0.45661266     0.77700
C682        C  0.26504573  0.86793648  0.45663795     0.78800
C683        C  0.26681424  0.72927105  0.45546002     0.77900
C684        C  0.10991927  0.88808734  0.28784262     0.46200
H685        H  0.10944471  0.88909344  0.31004709    -0.02800
C686        C  0.11134291  0.88611236  0.23648349     0.46300
H687        H  0.11207687  0.88533499  0.21427698    -0.02800
C688        C  0.06901504  0.87123286  0.27539710    -0.16500
C689        C  0.13521764  0.92892464  0.27498157    -0.16300
C690        C  0.12640635  0.86256103  0.27696863    -0.16600
C691        C  0.06966148  0.86934937  0.24813692    -0.16600
C692        C  0.13518648  0.92799603  0.24771126    -0.16200
C693        C  0.12807119  0.86234479  0.24970003    -0.16500
Zn694      Zn  0.27754011  0.80518590  0.10243941     1.49700
Zn695      Zn  0.22250449  0.77642908  0.14782247     1.49400
Zn696      Zn  0.19430858  0.80546032  0.10349857     1.49100
Zn697      Zn  0.19410755  0.72250614  0.10197785     1.49500
O698        O  0.22211714  0.77766512  0.11045804    -1.83400
O699        O  0.30907051  0.81933298  0.13723329    -0.74000
O700        O  0.17339108  0.77014855  0.16329922    -0.73800
O701        O  0.23196390  0.85522642  0.08227652    -0.73400
O702        O  0.26598492  0.82517606  0.16276496    -0.74000
O703        O  0.28951113  0.85531396  0.08186844    -0.73600
O704        O  0.18045370  0.82112440  0.13935090    -0.74200
O705        O  0.14491841  0.71109063  0.08128181    -0.73600
O706        O  0.22840888  0.73222048  0.16085221    -0.74400
O707        O  0.14402833  0.76816903  0.08293872    -0.73800
O708        O  0.17763724  0.69050698  0.13662274    -0.74200
O709        O  0.23146209  0.71024658  0.08105930    -0.74100
O710        O  0.28911512  0.76766485  0.08111885    -0.73900
C711        C  0.29974133  0.82870062  0.15943893     0.77900
C712        C  0.17066938  0.80108108  0.16113653     0.78400
C713        C  0.26861707  0.87112741  0.07570777     0.77300
C714        C  0.12868173  0.73182273  0.07582411     0.77700
C715        C  0.19734768  0.69891687  0.15819008     0.78800
C716        C  0.26818815  0.73105236  0.07476324     0.77900
Zn717      Zn  0.02788984  0.97310660  0.03196602     1.49700
Zn718      Zn  0.27807455  0.97252069  0.03122252     1.49400
Zn719      Zn  0.02767547  0.72197938  0.03186899     1.49100
Zn720      Zn  0.33418362  0.00046813  0.97867973     1.49500
O721        O  0.33358036  0.00032126  0.01811251    -1.83400
O722        O  0.32396129  0.92485858  0.05415748    -0.74000
O723        O  0.26630957  0.67595588  0.05307882    -0.73800
O724        O  0.07554909  0.73383568  0.05424792    -0.73400
O725        O  0.26637754  0.92384887  0.05323931    -0.74000
O726        O  0.07612254  0.67695300  0.05374932    -0.73600
O727        O  0.32352771  0.73310452  0.05327118    -0.74200
O728        O  0.03098568  0.72562894  0.96512158    -0.73600
O729        O  0.23870526  0.95312221  0.00101970    -0.74400
O730        O  0.04848162  0.76220686  0.00196268    -0.73800
O731        O  0.27632920  0.97221212  0.96429113    -0.74200
O732        O  0.02961781  0.97073682  0.96524894    -0.74100
O733        O  0.04795764  0.95260542  0.00222469    -0.73900
C734        C  0.28731256  0.90865769  0.06033611     0.77900
C735        C  0.28699018  0.71234535  0.05965122     0.78400
C736        C  0.09142246  0.71322459  0.06060601     0.77300
C737        C  0.04778012  0.75951925  0.97666482     0.77700
C738        C  0.24209915  0.95510830  0.97568846     0.78800
C739        C  0.04647546  0.95373244  0.97689752     0.77900
Zn740      Zn  0.30257561  0.69261299  0.52738731     1.49700
Zn741      Zn  0.30154315  0.94200783  0.52801151     1.49400
Zn742      Zn  0.33048071  0.99731497  0.47482487     1.49100
Zn743      Zn  0.05149093  0.69180616  0.52809374     1.49500
O744        O  0.32984736  0.99759260  0.51434359    -1.83400
O745        O  0.25284298  0.98859337  0.54892846    -0.74000
O746        O  0.28178826  0.90181287  0.49814893    -0.73800
O747        O  0.30228862  0.69373556  0.46035187    -0.73400
O748        O  0.25209391  0.93088148  0.54929486    -0.74000
O749        O  0.28341301  0.71236287  0.49697563    -0.73600
O750        O  0.30085605  0.93899348  0.46123225    -0.74200
O751        O  0.09188772  0.71144739  0.49809519    -0.73600
O752        O  0.00507399  0.93013540  0.55009478    -0.74400
O753        O  0.05563296  0.69199158  0.46125062    -0.73800
O754        O  0.06245130  0.98727799  0.54982558    -0.74200
O755        O  0.06291146  0.74089287  0.54984509    -0.74100
O756        O  0.00639721  0.74204611  0.54888375    -0.73900
C757        C  0.23643559  0.95188782  0.55532639     0.77900
C758        C  0.28350495  0.90485084  0.47281397     0.78400
C759        C  0.28521629  0.71084110  0.47168734     0.77300
C760        C  0.08938511  0.70911901  0.47279507     0.77700
C761        C  0.04152826  0.95069272  0.55636407     0.78800
C762        C  0.04255748  0.75732927  0.55573178     0.77900
C763        C  0.03615781  0.85327190  0.22973153    -0.04700
C764        C  0.03399242  0.82528392  0.21124553    -0.32200
C765        C  0.01276055  0.81841555  0.18775023     0.37100
C766        C  0.32566712  0.83900200  0.18272366    -0.05100
C767        C  0.99241243  0.86524869  0.20205775    -0.32100
C768        C  0.01456078  0.87276875  0.22540332     0.37000
H769        H  0.05085774  0.81035825  0.21433448     0.17400
O770        O  0.34451787  0.79061550  0.17022199    -0.59500
H771        H  0.30933490  0.88058331  0.19874495     0.17400
O772        O  0.01744256  0.90135711  0.24269285    -0.59600
H773        H  0.99480997  0.88722206  0.25531124     0.44400
H774        H  0.03588440  0.80469891  0.15937959     0.44300
C775        C  0.15226541  0.96153860  0.22893455    -0.04700
C776        C  0.12641597  0.96218417  0.20994313    -0.32200
C777        C  0.14081735  0.98349501  0.18624254     0.37100
C778        C  0.18189733  0.67259559  0.18161843    -0.05100
C779        C  0.20802771  0.00727768  0.20139799    -0.32100
C780        C  0.19334522  0.98477762  0.22490988     0.37000
H781        H  0.09463919  0.94396319  0.21278689     0.17400
O782        O  0.11440114  0.98296132  0.16807172    -0.59500
H783        H  0.23976613  0.69179209  0.19837358     0.17400
O784        O  0.21912274  0.98342898  0.24276680    -0.59600
H785        H  0.22769103  0.00710612  0.25416903     0.44400
H786        H  0.10614662  0.95864633  0.15740114     0.44300
C787        C  0.14532669  0.84445093  0.23248426    -0.04700
C788        C  0.17547565  0.87043200  0.21495179    -0.32200
C789        C  0.18323781  0.85657756  0.19141118     0.37100
C790        C  0.16092061  0.81599066  0.18521233    -0.05100
C791        C  0.13287302  0.78937256  0.20382875    -0.32100
C792        C  0.12468542  0.80352046  0.22733170     0.37000
H793        H  0.19117313  0.90213695  0.21864357     0.17400
O794        O  0.21247529  0.88305439  0.17447353    -0.59500
H795        H  0.11640505  0.75783288  0.19968135     0.17400
O796        O  0.09431374  0.77776480  0.24383991    -0.59600
H797        H  0.10713260  0.77013240  0.25786167     0.44400
H798        H  0.23701463  0.88364498  0.18033203     0.44300
C799        C  0.17050348  0.67195404  0.34072918    -0.04700
C800        C  0.19171002  0.98623895  0.33361541    -0.32200
C801        C  0.18415905  0.96558230  0.30971250     0.36100
C802        C  0.15497124  0.96348569  0.29243960    -0.05100
C803        C  0.13562344  0.98464004  0.29842328    -0.32100
C804        C  0.14317808  0.00554902  0.32239508     0.37000
H805        H  0.21359913  0.65308100  0.34687934     0.17400
O806        O  0.20306285  0.94459742  0.30444949    -0.59500
H807        H  0.11253836  0.98254156  0.28544829     0.17400
O808        O  0.12382593  0.02617462  0.32755400    -0.59600
H809        H  0.09750051  0.00614535  0.33481162     0.44400
H810        H  0.22831446  0.96380678  0.29549305     0.44300
C811        C  0.03475380  0.85787877  0.29331758    -0.04700
C812        C  0.03646358  0.88561080  0.31183827    -0.32200
C813        C  0.34870416  0.87326299  0.33585743     0.37100
C814        C  0.32548577  0.83240500  0.34174159    -0.05100
C815        C  0.98829983  0.80460421  0.32228592    -0.32100
C816        C  0.00939869  0.81718880  0.29809960     0.37000
H817        H  0.05663413  0.91704564  0.30852324     0.17400
O818        O  0.35306433  0.90136443  0.35412920    -0.59500
H819        H  0.96906957  0.77305234  0.32586087     0.17400
O820        O  0.00641415  0.78964105  0.27979105    -0.59600
H821        H  0.02313764  0.77907950  0.28665373     0.44400
H822        H  0.33576329  0.91158840  0.34779240     0.44300
C823        C  0.13863964  0.84232200  0.29607991    -0.04700
C824        C  0.11087422  0.81928000  0.31589988    -0.32200
C825        C  0.12293482  0.81114364  0.34001027     0.37100
C826        C  0.16351124  0.82647543  0.34465540    -0.05100
C827        C  0.19120964  0.84785682  0.32421857    -0.32100
C828        C  0.17889157  0.85543509  0.29987018     0.37000
H829        H  0.07989987  0.81005276  0.31348267     0.17400
O830        O  0.09510704  0.79043897  0.35952169    -0.59500
H831        H  0.22248489  0.85862509  0.32707887     0.17400
O832        O  0.20662486  0.87853272  0.28094055    -0.59600
H833        H  0.21085712  0.85968443  0.27005706     0.44400
H834        H  0.08269706  0.76212784  0.35431688     0.44300
C835        C  0.29245795  0.80715519  0.80227336    -0.04700
C836        C  0.32175325  0.84726346  0.80363205    -0.32200
C837        C  0.01139866  0.86208249  0.82663627     0.37100
C838        C  0.00543540  0.83632871  0.84839921    -0.05100
C839        C  0.31131403  0.79589246  0.84613565    -0.32100
C840        C  0.28807509  0.78135225  0.82351040     0.37000
H841        H  0.32527070  0.86755105  0.78759816     0.17400
O842        O  0.04026606  0.90139255  0.82732193    -0.59500
H843        H  0.30719542  0.77539338  0.86222120     0.17400
O844        O  0.26073757  0.74167424  0.82242576    -0.59600
H845        H  0.24112465  0.73684523  0.83679936     0.44400
H846        H  0.02629581  0.91584637  0.83247652     0.44300
C847        C  0.17437138  0.69913156  0.79592750    -0.04700
C848        C  0.14888522  0.70102101  0.81492973    -0.32200
C849        C  0.14251662  0.01541412  0.83954141     0.37100
C850        C  0.16043091  0.99246221  0.84509437    -0.05100
C851        C  0.18217891  0.65340373  0.82475037    -0.32100
C852        C  0.18914659  0.67322300  0.80014109     0.37000
H853        H  0.13714029  0.72068060  0.81177274     0.17400
O854        O  0.11992526  0.02090424  0.85833048    -0.59500
H855        H  0.19442921  0.63413713  0.82803474     0.17400
O856        O  0.21242583  0.66913876  0.78115621    -0.59600
H857        H  0.24010583  0.68894363  0.78564996     0.44400
H858        H  0.13874709  0.04524932  0.86803524     0.44300
C859        C  0.18579122  0.81904734  0.79503896    -0.04700
C860        C  0.14654480  0.79658018  0.80397306    -0.32200
C861        C  0.13475797  0.80494950  0.82842063     0.37100
C862        C  0.16265960  0.83644332  0.84436280    -0.05100
C863        C  0.20123981  0.86063367  0.83419482    -0.32100
C864        C  0.21288913  0.85196501  0.80986145     0.37000
H865        H  0.12568147  0.77067427  0.79289886     0.17400
O866        O  0.09628976  0.78119529  0.83685667    -0.59500
H867        H  0.22294482  0.88590043  0.84537659     0.17400
O868        O  0.25149602  0.87450690  0.80126650    -0.59600
H869        H  0.26765106  0.87095711  0.81500746     0.44400
H870        H  0.08121927  0.79249291  0.82826062     0.44300
C871        C  0.00481491  0.83116854  0.68819195    -0.04700
C872        C  0.99576710  0.85815965  0.70053078    -0.32200
C873        C  0.31080411  0.84991516  0.72561038     0.37100
C874        C  0.30083000  0.81414872  0.73877487    -0.05100
C875        C  0.31262952  0.78866850  0.72770967    -0.32100
C876        C  0.33050110  0.79646674  0.70238577     0.37000
H877        H  0.00227344  0.88561575  0.69060505     0.17400
O878        O  0.29893110  0.87498828  0.73589775    -0.59500
H879        H  0.30461058  0.76078283  0.73762995     0.17400
O880        O  0.33921564  0.76936186  0.69150239    -0.59600
H881        H  0.31470601  0.74986309  0.68230526     0.44400
H882        H  0.98985433  0.89755578  0.74341393     0.44300
C883        C  0.18472205  0.70252342  0.73262299    -0.04700
C884        C  0.21195243  0.70163924  0.71471613    -0.32200
C885        C  0.19979209  0.68146284  0.69070754     0.37100
C886        C  0.15920314  0.99422700  0.68422113    -0.05100
C887        C  0.13146326  0.99303749  0.70301107    -0.32100
C888        C  0.14407457  0.68046465  0.72716866     0.37000
H889        H  0.24329331  0.71873896  0.71863848     0.17400
O890        O  0.22813305  0.68352506  0.67328585    -0.59500
H891        H  0.10000442  0.97595061  0.69905924     0.17400
O892        O  0.11681666  0.67968522  0.74509144    -0.59600
H893        H  0.10206506  0.02382675  0.73552378     0.44400
H894        H  0.23531977  0.66401303  0.68016198     0.44300
C895        C  0.16524661  0.83611288  0.68332879    -0.04700
C896        C  0.19210094  0.86514525  0.70101123    -0.32200
C897        C  0.20235973  0.85415022  0.72501902     0.37100
C898        C  0.18596964  0.81380550  0.73146739    -0.05100
C899        C  0.15841100  0.78504348  0.71431581    -0.32100
C900        C  0.14790054  0.79570803  0.69051111     0.37000
H901        H  0.20513250  0.89648052  0.69630767     0.17400
O902        O  0.23003597  0.88284149  0.74117315    -0.59500
H903        H  0.14658319  0.75387814  0.71868608     0.17400
O904        O  0.12213063  0.76625320  0.67386877    -0.59600
H905        H  0.09538976  0.75710397  0.68159130     0.44400
H906        H  0.21479997  0.89088499  0.75301032     0.44300
Zn907      Zn  0.41067977  0.24467059  0.62655730     1.49700
Zn908      Zn  0.41607381  0.16561432  0.62583563     1.49400
Zn909      Zn  0.44037467  0.22020964  0.57300789     1.49100
Zn910      Zn  0.49415638  0.24952940  0.62534281     1.49500
O911        O  0.44013885  0.21999973  0.61207804    -1.83400
O912        O  0.36720208  0.20817834  0.65117891    -0.74000
O913        O  0.39390594  0.12457711  0.59679385    -0.73800
O914        O  0.41139102  0.24985454  0.56011623    -0.73400
O915        O  0.37539119  0.15588154  0.65369868    -0.74000
O916        O  0.39020948  0.26518978  0.59738194    -0.73600
O917        O  0.41072299  0.16161920  0.55964939    -0.74200
O918        O  0.53519173  0.26949910  0.59628135    -0.73600
O919        O  0.45313970  0.15734687  0.64843458    -0.74400
O920        O  0.49902003  0.24934720  0.55930081    -0.73800
O921        O  0.50481466  0.21788928  0.65178743    -0.74200
O922        O  0.50221338  0.29363310  0.64858942    -0.74100
O923        O  0.44295427  0.28760226  0.65283184    -0.73900
C924        C  0.36028541  0.17598469  0.66249304     0.77900
C925        C  0.39437631  0.12764114  0.57146090     0.78400
C926        C  0.39313484  0.26530280  0.57203535     0.77300
C927        C  0.53262618  0.26703169  0.57101292     0.77700
C928        C  0.48542871  0.18192150  0.65944797     0.78800
C929        C  0.47873016  0.30262390  0.66010475     0.77900
C930        C  0.55847467  0.11138142  0.74048324     0.46200
H931        H  0.56180077  0.11283843  0.71834140    -0.02800
C932        C  0.55107872  0.10867163  0.79169480     0.46300
H933        H  0.54782433  0.10791352  0.81380478    -0.02800
C934        C  0.59794053  0.12938778  0.75504969    -0.16500
C935        C  0.53804294  0.13351773  0.75088381    -0.16300
C936        C  0.53384967  0.06906644  0.75149488    -0.16600
C937        C  0.59413911  0.12712727  0.78228150    -0.16600
C938        C  0.53506113  0.13291780  0.77811978    -0.16200
C939        C  0.52924386  0.06762191  0.77863741    -0.16500
Zn940      Zn  0.41945508  0.25100003  0.90661566     1.49700
Zn941      Zn  0.41729085  0.16867457  0.90628474     1.49400
Zn942      Zn  0.49995089  0.24868452  0.90512174     1.49100
Zn943      Zn  0.44570092  0.22299125  0.95876923     1.49500
O944        O  0.44583102  0.22289480  0.91988352    -1.83400
O945        O  0.37914927  0.21908307  0.87941659    -0.74000
O946        O  0.44907958  0.16044850  0.87841906    -0.73800
O947        O  0.50652775  0.28865704  0.87724735    -0.73400
O948        O  0.37178466  0.15906092  0.88389265    -0.74000
O949        O  0.45443699  0.29627045  0.88356673    -0.73600
O950        O  0.50909093  0.21295427  0.88121293    -0.74200
O951        O  0.50459893  0.25260574  0.97122715    -0.73600
O952        O  0.39875459  0.12719189  0.93519920    -0.74400
O953        O  0.54173746  0.27170181  0.93403753    -0.73800
O954        O  0.41630507  0.16396594  0.97205596    -0.74200
O955        O  0.41608360  0.25226653  0.97233047    -0.74100
O956        O  0.39651460  0.26953457  0.93548627    -0.73900
C957        C  0.36389085  0.18322254  0.87216002     0.77900
C958        C  0.48438793  0.18098224  0.86976965     0.78400
C959        C  0.48525669  0.30343338  0.87043084     0.77300
C960        C  0.53866272  0.27005601  0.95946577     0.77700
C961        C  0.39983540  0.12999292  0.96051617     0.78800
C962        C  0.39835462  0.26854283  0.96080274     0.77900
Zn963      Zn  0.58064819  0.08190148  0.40126988     1.49700
Zn964      Zn  0.57972554  0.16333658  0.40228299     1.49400
Zn965      Zn  0.49869268  0.08060091  0.40230926     1.49100
Zn966      Zn  0.55269873  0.10819760  0.45465482     1.49500
O967        O  0.55301630  0.10851202  0.41571951    -1.83400
O968        O  0.62236486  0.11652520  0.37469237    -0.74000
O969        O  0.54559717  0.17128333  0.37664308    -0.73800
O970        O  0.49149526  0.04062057  0.37470040    -0.73400
O971        O  0.62361534  0.17400522  0.37736010    -0.74000
O972        O  0.54695034  0.03823672  0.37657691    -0.73600
O973        O  0.48779286  0.11540325  0.37958813    -0.74200
O974        O  0.49373038  0.07857008  0.46809869    -0.73600
O975        O  0.59942818  0.20450810  0.43132580    -0.74400
O976        O  0.45719635  0.05765204  0.43133668    -0.73800
O977        O  0.58189107  0.16698023  0.46818022    -0.74200
O978        O  0.58229194  0.07875644  0.46716281    -0.74100
O979        O  0.60232303  0.06183985  0.43010467    -0.73900
C980        C  0.63460315  0.15171944  0.36636905     0.77900
C981        C  0.51036885  0.14896622  0.36884189     0.78400
C982        C  0.51402772  0.02842681  0.36570967     0.77300
C983        C  0.45986805  0.06038817  0.45663276     0.77700
C984        C  0.59836605  0.20125351  0.45666508     0.78800
C985        C  0.60011922  0.06258709  0.45547544     0.77900
C986        C  0.44324470  0.22141431  0.28784667     0.46200
H987        H  0.44275908  0.22241121  0.31005123    -0.02800
C988        C  0.44469188  0.21945685  0.23648688     0.46300
H989        H  0.44544134  0.21869086  0.21428023    -0.02800
C990        C  0.40234657  0.20457126  0.27539162    -0.16500
C991        C  0.46855316  0.26225535  0.27499339    -0.16300
C992        C  0.45973072  0.19588633  0.27697273    -0.16600
C993        C  0.40300707  0.20269887  0.24812987    -0.16600
C994        C  0.46853575  0.26133580  0.24772250    -0.16200
C995        C  0.46139101  0.19566546  0.24970535    -0.16500
Zn996      Zn  0.61086059  0.13852959  0.10242986     1.49700
Zn997      Zn  0.55585050  0.10979039  0.14782454     1.49400
Zn998      Zn  0.52761989  0.13879993  0.10350825     1.49100
Zn999      Zn  0.52743016  0.05585503  0.10197541     1.49500
O1000       O  0.55543886  0.11100882  0.11046009    -1.83400
O1001       O  0.64241445  0.15265937  0.13721181    -0.74000
O1002       O  0.50673293  0.10348626  0.16331390    -0.73800
O1003       O  0.56527392  0.18858022  0.08230639    -0.73400
O1004       O  0.59935671  0.15854491  0.16274567    -0.74000
O1005       O  0.62281988  0.18866436  0.08187794    -0.73600
O1006       O  0.51373658  0.15443426  0.13935939    -0.74200
O1007       O  0.47823158  0.04444797  0.08128252    -0.73600
O1008       O  0.56175327  0.06558833  0.16086147    -0.74400
O1009       O  0.47735084  0.10153131  0.08292888    -0.73800
O1010       O  0.51099308  0.02386165  0.13662488    -0.74200
O1011       O  0.56478381  0.04360003  0.08104791    -0.74100
O1012       O  0.62243302  0.10102148  0.08109383    -0.73900
C1013       C  0.63310431  0.16204689  0.15941645     0.77900
C1014       C  0.50396220  0.13438895  0.16114364     0.78400
C1015       C  0.60192396  0.20448077  0.07573100     0.77300
C1016       C  0.46200179  0.06518430  0.07581549     0.77700
C1017       C  0.53070218  0.03227749  0.15819381     0.78800
C1018       C  0.60150736  0.06440587  0.07474541     0.77900
Zn1019     Zn  0.36119027  0.30643678  0.03197662     1.49700
Zn1020     Zn  0.61136692  0.30584655  0.03123288     1.49400
Zn1021     Zn  0.36098648  0.05532119  0.03186020     1.49100
Zn1022     Zn  0.66749356  0.33381433  0.97869709     1.49500
O1023       O  0.66688057  0.33365179  0.01812953    -1.83400
O1024       O  0.65725193  0.25819227  0.05416107    -0.74000
O1025       O  0.59963321  0.00930509  0.05306374    -0.73800
O1026       O  0.40888230  0.06720315  0.05422029    -0.73400
O1027       O  0.59967590  0.25720243  0.05327355    -0.74000
O1028       O  0.40943999  0.01031033  0.05374258    -0.73600
O1029       O  0.65685168  0.06644905  0.05326958    -0.74200
O1030       O  0.36433878  0.05897983  0.96512245    -0.73600
O1031       O  0.57200590  0.28641867  0.00102503    -0.74400
O1032       O  0.38174528  0.09555089  0.00196627    -0.73800
O1033       O  0.60963911  0.30555347  0.96430053    -0.74200
O1034       O  0.36293155  0.30409677  0.96526023    -0.74100
O1035       O  0.38126670  0.28595287  0.00223213    -0.73900
C1036       C  0.62061119  0.24200657  0.06035854     0.77900
C1037       C  0.62031134  0.04569391  0.05963960     0.78400
C1038       C  0.42474673  0.04658774  0.06059016     0.77300
C1039       C  0.38108111  0.09286744  0.97666978     0.77700
C1040       C  0.57540549  0.28842359  0.97569410     0.78800
C1041       C  0.37978884  0.28709050  0.97690546     0.77900
Zn1042     Zn  0.63588142  0.02593997  0.52740750     1.49700
Zn1043     Zn  0.63491399  0.27533964  0.52803265     1.49400
Zn1044     Zn  0.66384129  0.33064126  0.47483396     1.49100
Zn1045     Zn  0.38480336  0.02515276  0.52809877     1.49500
O1046       O  0.66321660  0.33092080  0.51435143    -1.83400
O1047       O  0.58621429  0.32192194  0.54893476    -0.74000
O1048       O  0.61513206  0.23513449  0.49817542    -0.73800
O1049       O  0.63561398  0.02707337  0.46036268    -0.73400
O1050       O  0.58548266  0.26421947  0.54933299    -0.74000
O1051       O  0.61669199  0.04565211  0.49699014    -0.73600
O1052       O  0.63418966  0.27231024  0.46125524    -0.74200
O1053       O  0.42521211  0.04476557  0.49811083    -0.73600
O1054       O  0.33844887  0.26347216  0.55010901    -0.74400
O1055       O  0.38896938  0.02535195  0.46126132    -0.73800
O1056       O  0.39583944  0.32060270  0.54980347    -0.74200
O1057       O  0.39622608  0.07426161  0.54982160    -0.74100
O1058       O  0.33969667  0.07538723  0.54889885    -0.73900
C1059       C  0.56981866  0.28522462  0.55535174     0.77900
C1060       C  0.61683646  0.23816917  0.47283995     0.78400
C1061       C  0.61851616  0.04415163  0.47170101     0.77300
C1062       C  0.42271719  0.04245478  0.47281050     0.77700
C1063       C  0.37491169  0.28402393  0.55635675     0.78800
C1064       C  0.37586815  0.09068714  0.55572473     0.77900
C1065       C  0.36951788  0.18662161  0.22971193    -0.04700
C1066       C  0.36738861  0.15866257  0.21121324    -0.32200
C1067       C  0.34616197  0.15179372  0.18771507     0.37100
C1068       C  0.65904220  0.17235633  0.18269589    -0.05100
C1069       C  0.32576495  0.19858324  0.20203711    -0.32100
C1070       C  0.34789909  0.20609570  0.22538821     0.37000
H1071       H  0.38427090  0.14375440  0.21429757     0.17400
O1072       O  0.67793850  0.12400641  0.17018253    -0.59500
H1073       H  0.64267002  0.21390112  0.19872963     0.17400
O1074       O  0.35073536  0.23464855  0.24269308    -0.59600
H1075       H  0.32807981  0.22048441  0.25529043     0.44400
H1076       H  0.36935291  0.13807493  0.15938667     0.44300
C1077       C  0.48560673  0.29488574  0.22895140    -0.04700
C1078       C  0.45974336  0.29555215  0.20997958    -0.32200
C1079       C  0.47412641  0.31684512  0.18626990     0.37100
C1080       C  0.51525647  0.00595317  0.18161981    -0.05100
C1081       C  0.54134852  0.34059851  0.20138949    -0.32100
C1082       C  0.52668344  0.31808914  0.22489882     0.37000
H1083       H  0.42796831  0.27734406  0.21283909     0.17400
O1084       O  0.44769525  0.31628199  0.16809970    -0.59500
H1085       H  0.57312884  0.02511618  0.19835745     0.17400
O1086       O  0.55247035  0.31667525  0.24271648    -0.59600
H1087       H  0.56102637  0.34029714  0.25417212     0.44400
H1088       H  0.43944893  0.29196070  0.15743757     0.44300
C1089       C  0.47859940  0.17772534  0.23249241    -0.04700
C1090       C  0.50881245  0.20369285  0.21499629    -0.32200
C1091       C  0.51657653  0.18984568  0.19145468     0.37100
C1092       C  0.49418982  0.14928086  0.18521460    -0.05100
C1093       C  0.46606004  0.12266311  0.20379066    -0.32100
C1094       C  0.45787253  0.13680499  0.22729706     0.37000
H1095       H  0.52456952  0.23538972  0.21871841     0.17400
O1096       O  0.54589416  0.21630801  0.17455761    -0.59500
H1097       H  0.44953691  0.09113564  0.19960961     0.17400
O1098       O  0.42743221  0.11106408  0.24376720    -0.59600
H1099       H  0.44019200  0.10345167  0.25784330     0.44400
H1100       H  0.57039069  0.21684880  0.18046248     0.44300
C1101       C  0.50385380  0.00531927  0.34073568    -0.04700
C1102       C  0.52506454  0.31956689  0.33362802    -0.32200
C1103       C  0.51749627  0.29890232  0.30972693     0.36100
C1104       C  0.48830484  0.29680938  0.29245906    -0.05100
C1105       C  0.46895856  0.31796311  0.29845127    -0.32100
C1106       C  0.47653149  0.33888081  0.32242053     0.37000
H1107       H  0.54693601  0.98643316  0.34690683     0.17400
O1108       O  0.53638686  0.27790607  0.30446031    -0.59500
H1109       H  0.44586685  0.31586398  0.28548283     0.17400
O1110       O  0.45718821  0.35951410  0.32758385    -0.59600
H1111       H  0.43088726  0.33950119  0.33488495     0.44400
H1112       H  0.56172454  0.29715829  0.29561624     0.44300
C1113       C  0.36807624  0.19121242  0.29330495    -0.04700
C1114       C  0.36975386  0.21894690  0.31181052    -0.32200
C1115       C  0.68195662  0.20660325  0.33581671     0.37100
C1116       C  0.65875922  0.16574530  0.34171427    -0.05100
C1117       C  0.32160248  0.13794170  0.32226903    -0.32100
C1118       C  0.34272906  0.15052285  0.29809151     0.37000
H1119       H  0.38991709  0.25038245  0.30849193     0.17400
O1120       O  0.68625356  0.23471276  0.35406161    -0.59500
H1121       H  0.30238322  0.10638941  0.32584862     0.17400
O1122       O  0.33978643  0.12297364  0.27979847    -0.59600
H1123       H  0.35643019  0.11235386  0.28671817     0.44400
H1124       H  0.66895519  0.24491571  0.34768168     0.44300
C1125       C  0.47196855  0.17564689  0.29608004    -0.04700
C1126       C  0.44420049  0.15258629  0.31589168    -0.32200
C1127       C  0.45625662  0.14444044  0.34000000     0.37100
C1128       C  0.49683443  0.15979288  0.34465675    -0.05100
C1129       C  0.52453810  0.18119326  0.32422577    -0.32100
C1130       C  0.51222274  0.18877285  0.29987604     0.37000
H1131       H  0.41322499  0.14334874  0.31346992     0.17400
O1132       O  0.42841759  0.12369920  0.35949702    -0.59500
H1133       H  0.55581508  0.19197706  0.32709191     0.17400
O1134       O  0.53995923  0.21188459  0.28095188    -0.59600
H1135       H  0.54416493  0.19303998  0.27004433     0.44400
H1136       H  0.41609350  0.09538831  0.35430810     0.44300
C1137       C  0.62580676  0.14044508  0.80225582    -0.04700
C1138       C  0.65509289  0.18055341  0.80363043    -0.32200
C1139       C  0.34470486  0.19536267  0.82664801     0.37100
C1140       C  0.33872576  0.16959735  0.84840656    -0.05100
C1141       C  0.64462610  0.12915900  0.84612542    -0.32100
C1142       C  0.62141221  0.11462917  0.82348797     0.37000
H1143       H  0.65861649  0.20085124  0.78760248     0.17400
O1144       O  0.37354791  0.23468011  0.82735451    -0.59500
H1145       H  0.64049894  0.10865269  0.86220810     0.17400
O1146       O  0.59407703  0.07495218  0.82239004    -0.59600
H1147       H  0.57447904  0.07010295  0.83677895     0.44400
H1148       H  0.35956267  0.24910030  0.83255669     0.44300
C1149       C  0.50771370  0.03248119  0.79591517    -0.04700
C1150       C  0.48225795  0.03437714  0.81493918    -0.32200
C1151       C  0.47575395  0.34874482  0.83953247     0.37100
C1152       C  0.49367880  0.32580925  0.84510853    -0.05100
C1153       C  0.51553427  0.98672935  0.82470734    -0.32100
C1154       C  0.52249276  0.00657163  0.80010489     0.37000
H1155       H  0.47052217  0.05404999  0.81180345     0.17400
O1156       O  0.45308783  0.35417889  0.85829134    -0.59500
H1157       H  0.52777493  0.96745025  0.82797312     0.17400
O1158       O  0.54578332  0.00253389  0.78110499    -0.59600
H1159       H  0.57349782  0.02172771  0.78594500     0.44400
H1160       H  0.47185688  0.37853548  0.86800719     0.44300
C1161       C  0.51918715  0.15242482  0.79508437    -0.04700
C1162       C  0.47992521  0.12997790  0.80399044    -0.32200
C1163       C  0.46811238  0.13834878  0.82842604     0.37100
C1164       C  0.49600277  0.16982144  0.84438617    -0.05100
C1165       C  0.53460720  0.19398711  0.83425087    -0.32100
C1166       C  0.54628671  0.18531108  0.80993229     0.37000
H1167       H  0.45906483  0.10408729  0.79290211     0.17400
O1168       O  0.42962249  0.11462479  0.83682752    -0.59500
H1169       H  0.55630834  0.21923369  0.84545010     0.17400
O1170       O  0.58491874  0.20781293  0.80137821    -0.59600
H1171       H  0.60102079  0.20422498  0.81514211     0.44400
H1172       H  0.41463196  0.12608054  0.82832330     0.44300
C1173       C  0.33812583  0.16450060  0.68817364    -0.04700
C1174       C  0.32908055  0.19149365  0.70051159    -0.32200
C1175       C  0.64410695  0.18324435  0.72558585     0.37100
C1176       C  0.63414532  0.14748399  0.73875533    -0.05100
C1177       C  0.64594213  0.12200201  0.72769093    -0.32100
C1178       C  0.66379590  0.12979000  0.70236232     0.37000
H1179       H  0.33558870  0.21895065  0.69058634     0.17400
O1180       O  0.63220833  0.20830431  0.73585970    -0.59500
H1181       H  0.63792219  0.09411637  0.73761184     0.17400
O1182       O  0.67246730  0.10266172  0.69146697    -0.59600
H1183       H  0.64796133  0.08321422  0.68224244     0.44400
H1184       H  0.32307745  0.23077406  0.74350849     0.44300
C1185       C  0.51802202  0.03589291  0.73260769    -0.04700
C1186       C  0.54525309  0.03502222  0.71469581    -0.32200
C1187       C  0.53308730  0.01479188  0.69070824     0.37100
C1188       C  0.49255464  0.32760413  0.68421930    -0.05100
C1189       C  0.46481738  0.32644729  0.70299753    -0.32100
C1190       C  0.47736908  0.01377409  0.72717725     0.37000
H1191       H  0.57659577  0.05215568  0.71860272     0.17400
O1192       O  0.56142675  0.01682962  0.67329609    -0.59500
H1193       H  0.43336084  0.30939978  0.69903116     0.17400
O1194       O  0.45010745  0.01296011  0.74511082    -0.59600
H1195       H  0.43543941  0.35724620  0.73551564     0.44400
H1196       H  0.56859004  0.99730421  0.68018052     0.44300
C1197       C  0.49855760  0.16947226  0.68335910    -0.04700
C1198       C  0.52544570  0.19851593  0.70102221    -0.32200
C1199       C  0.53569683  0.18753743  0.72504049     0.37100
C1200       C  0.51929682  0.14719689  0.73150674    -0.05100
C1201       C  0.49169802  0.11842572  0.71437840    -0.32100
C1202       C  0.48116502  0.12907521  0.69057636     0.37000
H1203       H  0.53849890  0.22984794  0.69630019     0.17400
O1204       O  0.56335502  0.21624083  0.74119698    -0.59500
H1205       H  0.47984402  0.08726102  0.71876915     0.17400
O1206       O  0.45530559  0.09960808  0.67397809    -0.59600
H1207       H  0.42859454  0.09056498  0.68171713     0.44400
H1208       H  0.54809375  0.22423052  0.75305293     0.44300
Zn1209     Zn  0.41067375  0.57799795  0.62656215     1.49700
Zn1210     Zn  0.41608980  0.49894456  0.62583970     1.49400
Zn1211     Zn  0.44035764  0.55354367  0.57300425     1.49100
Zn1212     Zn  0.49415788  0.58284901  0.62533159     1.49500
O1213       O  0.44013554  0.55332931  0.61207594    -1.83400
O1214       O  0.36720019  0.54149662  0.65119381    -0.74000
O1215       O  0.39388894  0.45790781  0.59679873    -0.73800
O1216       O  0.41133573  0.58315423  0.56012311    -0.73400
O1217       O  0.37544194  0.48923179  0.65372824    -0.74000
O1218       O  0.39019536  0.59852880  0.59739093    -0.73600
O1219       O  0.41073954  0.49494609  0.55965036    -0.74200
O1220       O  0.53518323  0.60277396  0.59626005    -0.73600
O1221       O  0.45317811  0.49065239  0.64840590    -0.74400
O1222       O  0.49899928  0.58273012  0.55928115    -0.73800
O1223       O  0.50480500  0.55121738  0.65178623    -0.74200
O1224       O  0.50223729  0.62697550  0.64856936    -0.74100
O1225       O  0.44297278  0.62093308  0.65282671    -0.73900
C1226       C  0.36031206  0.50931642  0.66251671     0.77900
C1227       C  0.39438241  0.46096892  0.57146475     0.78400
C1228       C  0.39309724  0.59861990  0.57204293     0.77300
C1229       C  0.53261015  0.60036557  0.57098980     0.77700
C1230       C  0.48544881  0.51524257  0.65943278     0.78800
C1231       C  0.47875381  0.63596236  0.66009036     0.77900
C1232       C  0.55850919  0.44471703  0.74048943     0.46200
H1233       H  0.56184498  0.44616323  0.71834825    -0.02800
C1234       C  0.55109167  0.44203741  0.79169892     0.46300
H1235       H  0.54782329  0.44129095  0.81380716    -0.02800
C1236       C  0.59796519  0.46271075  0.75506450    -0.16500
C1237       C  0.53808943  0.46687590  0.75087439    -0.16300
C1238       C  0.53387030  0.40240995  0.75150751    -0.16600
C1239       C  0.59415556  0.46047708  0.78229500    -0.16600
C1240       C  0.53509515  0.46628913  0.77810899    -0.16200
C1241       C  0.52924845  0.40098227  0.77864916    -0.16500
Zn1242     Zn  0.41953253  0.58437915  0.90662515     1.49700
Zn1243     Zn  0.41730591  0.50201595  0.90629694     1.49400
Zn1244     Zn  0.49996379  0.58198101  0.90513140     1.49100
Zn1245     Zn  0.44571905  0.55632366  0.95878912     1.49500
O1246       O  0.44585918  0.55622937  0.91989939    -1.83400
O1247       O  0.37931207  0.55251308  0.87935876    -0.74000
O1248       O  0.44906966  0.49376635  0.87841065    -0.73800
O1249       O  0.50652230  0.62191727  0.87723187    -0.73400
O1250       O  0.37180596  0.49244180  0.88391172    -0.74000
O1251       O  0.45457038  0.62972795  0.88364532    -0.73600
O1252       O  0.50910378  0.54622537  0.88124083    -0.74200
O1253       O  0.50460504  0.58594561  0.97124979    -0.73600
O1254       O  0.39876980  0.46053978  0.93522629    -0.74400
O1255       O  0.54173693  0.60501801  0.93405559    -0.73800
O1256       O  0.41634567  0.49730961  0.97208566    -0.74200
O1257       O  0.41608866  0.58557906  0.97235207    -0.74100
O1258       O  0.39652494  0.60284355  0.93550297    -0.73900
C1259       C  0.36400055  0.51663462  0.87213045     0.77900
C1260       C  0.48439023  0.51427759  0.86977690     0.78400
C1261       C  0.48531275  0.63678015  0.87045368     0.77300
C1262       C  0.53866516  0.60338686  0.95948464     0.77700
C1263       C  0.39986453  0.46333839  0.96054470     0.78800
C1264       C  0.39835461  0.60184642  0.96082060     0.77900
Zn1265     Zn  0.58070378  0.41525722  0.40128126     1.49700
Zn1266     Zn  0.57976058  0.49668369  0.40227227     1.49400
Zn1267     Zn  0.49873174  0.41394688  0.40231105     1.49100
Zn1268     Zn  0.55273069  0.44154432  0.45465020     1.49500
O1269       O  0.55305798  0.44186225  0.41571727    -1.83400
O1270       O  0.62244297  0.44988542  0.37472378    -0.74000
O1271       O  0.54563196  0.50461632  0.37662821    -0.73800
O1272       O  0.49154555  0.37396518  0.37471507    -0.73400
O1273       O  0.62367301  0.50735852  0.37736186    -0.74000
O1274       O  0.54700856  0.37159288  0.37658124    -0.73600
O1275       O  0.48782112  0.44874455  0.37958711    -0.74200
O1276       O  0.49376122  0.41191997  0.46809267    -0.73600
O1277       O  0.59941372  0.53785437  0.43131135    -0.74400
O1278       O  0.45722719  0.39097923  0.43133304    -0.73800
O1279       O  0.58190006  0.50032359  0.46816456    -0.74200
O1280       O  0.58233446  0.41211284  0.46717145    -0.74100
O1281       O  0.60237637  0.39520060  0.43011749    -0.73900
C1282       C  0.63467355  0.48507142  0.36638693     0.77900
C1283       C  0.51039809  0.48230473  0.36883668     0.78400
C1284       C  0.51407763  0.36177343  0.36572176     0.77300
C1285       C  0.45989837  0.39372556  0.45662846     0.77700
C1286       C  0.59835219  0.53459592  0.45665037     0.78800
C1287       C  0.60016767  0.39594615  0.45548740     0.77900
C1288       C  0.44320663  0.55468960  0.28782963     0.46200
H1289       H  0.44271073  0.55569129  0.31003378    -0.02800
C1290       C  0.44467663  0.55272758  0.23647064     0.46300
H1291       H  0.44543082  0.55195503  0.21426449    -0.02800
C1292       C  0.40231028  0.53781071  0.27536788    -0.16500
C1293       C  0.46849449  0.59553471  0.27497533    -0.16300
C1294       C  0.45972925  0.52918838  0.27696606    -0.16600
C1295       C  0.40298167  0.53593680  0.24810811    -0.16600
C1296       C  0.46849168  0.59461369  0.24770385    -0.16200
C1297       C  0.46141177  0.52897440  0.24969926    -0.16500
Zn1298     Zn  0.61083422  0.47184223  0.10242885     1.49700
Zn1299     Zn  0.55582115  0.44308683  0.14781232     1.49400
Zn1300     Zn  0.52761614  0.47212615  0.10350323     1.49100
Zn1301     Zn  0.52739190  0.38917164  0.10198560     1.49500
O1302       O  0.55541536  0.44432701  0.11045047    -1.83400
O1303       O  0.64236287  0.48593113  0.13721225    -0.74000
O1304       O  0.50669200  0.43675675  0.16329573    -0.73800
O1305       O  0.56529266  0.52190940  0.08229784    -0.73400
O1306       O  0.59931421  0.49184305  0.16273833    -0.74000
O1307       O  0.62283825  0.52199386  0.08189095    -0.73600
O1308       O  0.51375957  0.48775082  0.13936711    -0.74200
O1309       O  0.47819525  0.37775196  0.08130004    -0.73600
O1310       O  0.56174603  0.39889169  0.16083848    -0.74400
O1311       O  0.47732915  0.43484309  0.08293970    -0.73800
O1312       O  0.51093335  0.35718892  0.13663724    -0.74200
O1313       O  0.56474148  0.37691548  0.08106110    -0.74100
O1314       O  0.62238952  0.43434185  0.08108503    -0.73900
C1315       C  0.63305232  0.49531976  0.15941565     0.77900
C1316       C  0.50396897  0.46768848  0.16114495     0.78400
C1317       C  0.60194879  0.53781228  0.07573486     0.77300
C1318       C  0.46196794  0.39849015  0.07583559     0.77700
C1319       C  0.53066698  0.36559817  0.15819396     0.78800
C1320       C  0.60145987  0.39772418  0.07474500     0.77900
Zn1321     Zn  0.36122159  0.63976940  0.03198769     1.49700
Zn1322     Zn  0.61140612  0.63917751  0.03123325     1.49400
Zn1323     Zn  0.36095830  0.38864262  0.03188544     1.49100
Zn1324     Zn  0.66749682  0.66712514  0.97869538     1.49500
O1325       O  0.66691436  0.66698265  0.01812725    -1.83400
O1326       O  0.65730106  0.59154352  0.05419449    -0.74000
O1327       O  0.59957363  0.34262761  0.05305538    -0.73800
O1328       O  0.40883317  0.40050287  0.05426170    -0.73400
O1329       O  0.59971164  0.59051961  0.05325269    -0.74000
O1330       O  0.40940666  0.34361955  0.05375944    -0.73600
O1331       O  0.65680386  0.39976067  0.05327944    -0.74200
O1332       O  0.36433521  0.39232682  0.96514806    -0.73600
O1333       O  0.57201952  0.61976737  0.00104025    -0.74400
O1334       O  0.38176529  0.42888878  0.00199591    -0.73800
O1335       O  0.60963863  0.63885810  0.96431070    -0.74200
O1336       O  0.36293113  0.63739913  0.96527257    -0.74100
O1337       O  0.38126722  0.61925901  0.00224739    -0.73900
C1338       C  0.62064946  0.57534041  0.06036469     0.77900
C1339       C  0.62025809  0.37901183  0.05963797     0.78400
C1340       C  0.42470599  0.37989110  0.06061886     0.77300
C1341       C  0.38109976  0.42621143  0.97669831     0.77700
C1342       C  0.57540982  0.62175324  0.97570904     0.78800
C1343       C  0.37978470  0.62039096  0.97692070     0.77900
Zn1344     Zn  0.63591262  0.35926526  0.52741070     1.49700
Zn1345     Zn  0.63489877  0.60867248  0.52802039     1.49400
Zn1346     Zn  0.66381259  0.66396913  0.47482165     1.49100
Zn1347     Zn  0.38484327  0.35848761  0.52809964     1.49500
O1348       O  0.66320003  0.66425378  0.51433909    -1.83400
O1349       O  0.58618343  0.65525474  0.54889168    -0.74000
O1350       O  0.61511025  0.56846733  0.49816276    -0.73800
O1351       O  0.63565819  0.36042531  0.46037500    -0.73400
O1352       O  0.58548009  0.59756548  0.54932381    -0.74000
O1353       O  0.61672296  0.37898985  0.49700193    -0.73600
O1354       O  0.63415777  0.60564648  0.46124420    -0.74200
O1355       O  0.42524713  0.37812210  0.49810779    -0.73600
O1356       O  0.33841914  0.59679204  0.55010349    -0.74400
O1357       O  0.38899720  0.35866364  0.46126262    -0.73800
O1358       O  0.39580992  0.65391970  0.54980458    -0.74200
O1359       O  0.39625039  0.40758710  0.54983673    -0.74100
O1360       O  0.33972007  0.40871031  0.54889697    -0.73900
C1361       C  0.56980051  0.61856258  0.55532424     0.77900
C1362       C  0.61680954  0.57150578  0.47282744     0.78400
C1363       C  0.61855868  0.37750288  0.47171320     0.77300
C1364       C  0.42274805  0.37578977  0.47280824     0.77700
C1365       C  0.37487793  0.61734251  0.55636023     0.78800
C1366       C  0.37588741  0.42401180  0.55573098     0.77900
C1367       C  0.36949106  0.51986478  0.22969250    -0.04700
C1368       C  0.36734613  0.49190317  0.21119103    -0.32200
C1369       C  0.34609547  0.48503096  0.18770340     0.37100
C1370       C  0.65897966  0.50560158  0.18269697    -0.05100
C1371       C  0.32571555  0.53182699  0.20204339    -0.32100
C1372       C  0.34786453  0.53933546  0.22538551     0.37000
H1373       H  0.38422986  0.47699374  0.21426581     0.17400
O1374       O  0.67785267  0.45724053  0.17016559    -0.59500
H1375       H  0.64262310  0.54714979  0.19874555     0.17400
O1376       O  0.35070658  0.56788264  0.24269765    -0.59600
H1377       H  0.32815690  0.55367983  0.25536900     0.44400
H1378       H  0.36926017  0.47130447  0.15936238     0.44300
C1379       C  0.48556576  0.62816326  0.22892877    -0.04700
C1380       C  0.45971855  0.62879406  0.20992876    -0.32200
C1381       C  0.47412369  0.65012159  0.18623364     0.37100
C1382       C  0.51522948  0.33929125  0.18162923    -0.05100
C1383       C  0.54133124  0.67393564  0.20140515    -0.32100
C1384       C  0.52664633  0.65143619  0.22491763     0.37000
H1385       H  0.42794187  0.61055562  0.21276391     0.17400
O1386       O  0.44770947  0.64959187  0.16806263    -0.59500
H1387       H  0.57311434  0.35841371  0.19833001     0.17400
O1388       O  0.55242707  0.65013513  0.24279376    -0.59600
H1389       H  0.56096171  0.67381774  0.25418508     0.44400
H1390       H  0.43945582  0.62527942  0.15738943     0.44300
C1391       C  0.47865802  0.51106040  0.23249719    -0.04700
C1392       C  0.50883407  0.53702903  0.21497825    -0.32200
C1393       C  0.51659636  0.52316636  0.19144267     0.37100
C1394       C  0.49423354  0.48259013  0.18522739    -0.05100
C1395       C  0.46615620  0.45597767  0.20383131    -0.32100
C1396       C  0.45798573  0.47013226  0.22733820     0.37000
H1397       H  0.52455846  0.56873225  0.21867762     0.17400
O1398       O  0.54588318  0.54962410  0.17452558    -0.59500
H1399       H  0.44965864  0.42444217  0.19967342     0.17400
O1400       O  0.42760999  0.44439058  0.24384913    -0.59600
H1401       H  0.44038496  0.43650611  0.25774994     0.44400
H1402       H  0.57040428  0.55022086  0.18043593     0.44300
C1403       C  0.50388660  0.33865620  0.34075233    -0.04700
C1404       C  0.52502097  0.65287228  0.33359957    -0.32200
C1405       C  0.51745041  0.63220755  0.30969802     0.36100
C1406       C  0.48823687  0.63009018  0.29244135    -0.05100
C1407       C  0.46888144  0.65123335  0.29843887    -0.32100
C1408       C  0.47647366  0.67217083  0.32240120     0.37000
H1409       H  0.54696207  0.31976079  0.34691453     0.17400
O1410       O  0.53637588  0.61124939  0.30441462    -0.59500
H1411       H  0.44578085  0.64912449  0.28547543     0.17400
O1412       O  0.45715377  0.69282919  0.32755667    -0.59600
H1413       H  0.43085831  0.67283781  0.33487739     0.44400
H1414       H  0.56164258  0.63049122  0.29548880     0.44300
C1415       C  0.36803373  0.52445981  0.29327474    -0.04700
C1416       C  0.36969960  0.55222147  0.31175129    -0.32200
C1417       C  0.68195346  0.53991506  0.33577715     0.37100
C1418       C  0.65880957  0.49906714  0.34172206    -0.05100
C1419       C  0.32164772  0.47123112  0.32230077    -0.32100
C1420       C  0.34271959  0.48377500  0.29810099     0.37000
H1421       H  0.38982449  0.58365571  0.30839559     0.17400
O1422       O  0.68624164  0.56805874  0.35398894    -0.59500
H1423       H  0.30245723  0.43968243  0.32591213     0.17400
O1424       O  0.33974587  0.45619943  0.27981932    -0.59600
H1425       H  0.35628899  0.44548710  0.28678066     0.44400
H1426       H  0.66872416  0.57804084  0.34768500     0.44300
C1427       C  0.47196993  0.50896109  0.29608166    -0.04700
C1428       C  0.44421209  0.48593642  0.31590960    -0.32200
C1429       C  0.45628217  0.47782459  0.34002455     0.37100
C1430       C  0.49685804  0.49313427  0.34465724    -0.05100
C1431       C  0.52454820  0.51449295  0.32421068    -0.32100
C1432       C  0.51222301  0.52206909  0.29986418     0.37000
H1433       H  0.41323750  0.47671354  0.31349600     0.17400
O1434       O  0.42846726  0.45717775  0.35955472    -0.59500
H1435       H  0.55582316  0.52525213  0.32706382     0.17400
O1436       O  0.53995128  0.54516372  0.28093069    -0.59600
H1437       H  0.54421781  0.52632006  0.27006757     0.44400
H1438       H  0.41602237  0.42885470  0.35437349     0.44300
C1439       C  0.62582288  0.47380673  0.80227027    -0.04700
C1440       C  0.65518238  0.51389636  0.80359156    -0.32200
C1441       C  0.34484671  0.52872707  0.82658680     0.37100
C1442       C  0.33883839  0.50300035  0.84837569    -0.05100
C1443       C  0.64466324  0.46257597  0.84614537    -0.32100
C1444       C  0.62139789  0.44802781  0.82353413     0.37000
H1445       H  0.65873116  0.53416795  0.78753940     0.17400
O1446       O  0.37375999  0.56802180  0.82724432    -0.59500
H1447       H  0.64050703  0.44209630  0.86225317     0.17400
O1448       O  0.59398239  0.40836880  0.82249524    -0.59600
H1449       H  0.57441336  0.40361707  0.83688441     0.44400
H1450       H  0.35983183  0.58252249  0.83238577     0.44300
C1451       C  0.50770800  0.36585212  0.79593318    -0.04700
C1452       C  0.48222118  0.36774015  0.81493625    -0.32200
C1453       C  0.47577153  0.68205097  0.83953365     0.37100
C1454       C  0.49370783  0.65912706  0.84511760    -0.05100
C1455       C  0.51550068  0.32010525  0.82474597    -0.32100
C1456       C  0.52249223  0.33995067  0.80014580     0.37000
H1457       H  0.47048655  0.38741103  0.81178486     0.17400
O1458       O  0.45311524  0.68750245  0.85829083    -0.59500
H1459       H  0.52774799  0.30083547  0.82802843     0.17400
O1460       O  0.54581921  0.33591531  0.78117455    -0.59600
H1461       H  0.57349253  0.35564163  0.78574256     0.44400
H1462       H  0.47189964  0.71183589  0.86802150     0.44300
C1463       C  0.51921773  0.48580376  0.79506439    -0.04700
C1464       C  0.47994689  0.46336119  0.80395543    -0.32200
C1465       C  0.46812692  0.47169236  0.82840371     0.37100
C1466       C  0.49601486  0.50313081  0.84438816    -0.05100
C1467       C  0.53463177  0.52729200  0.83426998    -0.32100
C1468       C  0.54631746  0.51865631  0.80993843     0.37000
H1469       H  0.45908695  0.43749251  0.79284861     0.17400
O1470       O  0.42963554  0.44795310  0.83679670    -0.59500
H1471       H  0.55633571  0.55250942  0.84548981     0.17400
O1472       O  0.58495409  0.54116579  0.80139315    -0.59600
H1473       H  0.60105185  0.53755449  0.81514898     0.44400
H1474       H  0.41465715  0.45946004  0.82834316     0.44300
C1475       C  0.33815110  0.49782347  0.68819698    -0.04700
C1476       C  0.32911226  0.52481668  0.70054143    -0.32200
C1477       C  0.64414290  0.51656415  0.72561662     0.37100
C1478       C  0.63417402  0.48079843  0.73877835    -0.05100
C1479       C  0.64595721  0.45530993  0.72770702    -0.32100
C1480       C  0.66380712  0.46310109  0.70237637     0.37000
H1481       H  0.33562242  0.55227704  0.69062044     0.17400
O1482       O  0.63223949  0.54161829  0.73589507    -0.59500
H1483       H  0.63792837  0.42741865  0.73762298     0.17400
O1484       O  0.67245884  0.43596598  0.69146797    -0.59600
H1485       H  0.64785651  0.41637346  0.68240408     0.44400
H1486       H  0.32312249  0.56412831  0.74349771     0.44300
C1487       C  0.51803630  0.36922933  0.73262378    -0.04700
C1488       C  0.54526386  0.36832945  0.71472191    -0.32200
C1489       C  0.53309977  0.34811597  0.69072648     0.37100
C1490       C  0.49257906  0.66093944  0.68420564    -0.05100
C1491       C  0.46483975  0.65976471  0.70298936    -0.32100
C1492       C  0.47738782  0.34715587  0.72717431     0.37000
H1493       H  0.57660440  0.38542710  0.71864329     0.17400
O1494       O  0.56143635  0.35011638  0.67332681    -0.59500
H1495       H  0.43338338  0.64271808  0.69902227     0.17400
O1496       O  0.45012861  0.34635795  0.74510295    -0.59600
H1497       H  0.43542187  0.69051356  0.73548501     0.44400
H1498       H  0.56861844  0.33062252  0.68024686     0.44300
C1499       C  0.49859130  0.50280433  0.68334253    -0.04700
C1500       C  0.52547495  0.53185624  0.70100447    -0.32200
C1501       C  0.53574043  0.52088762  0.72502099     0.37100
C1502       C  0.51935176  0.48054920  0.73148837    -0.05100
C1503       C  0.49176087  0.45177155  0.71436116    -0.32100
C1504       C  0.48122143  0.46240954  0.69055800     0.37000
H1505       H  0.53851628  0.56318674  0.69628182     0.17400
O1506       O  0.56340210  0.54959741  0.74117276    -0.59500
H1507       H  0.47992007  0.42061036  0.71875231     0.17400
O1508       O  0.45538616  0.43293499  0.67395410    -0.59600
H1509       H  0.42867598  0.42378042  0.68173300     0.44400
H1510       H  0.54814670  0.55760827  0.75301740     0.44300
Zn1511     Zn  0.41065420  0.91131397  0.62655490     1.49700
Zn1512     Zn  0.41608190  0.83227151  0.62583524     1.49400
Zn1513     Zn  0.44032360  0.88685976  0.57299868     1.49100
Zn1514     Zn  0.49413925  0.91617598  0.62533188     1.49500
O1515       O  0.44011748  0.88665012  0.61206975    -1.83400
O1516       O  0.36716084  0.87481122  0.65116908    -0.74000
O1517       O  0.39392826  0.79122622  0.59679893    -0.73800
O1518       O  0.41130122  0.91647840  0.56011418    -0.73400
O1519       O  0.37542683  0.82256245  0.65371847    -0.74000
O1520       O  0.39020829  0.93188811  0.59738845    -0.73600
O1521       O  0.41070272  0.82826072  0.55965146    -0.74200
O1522       O  0.53515267  0.93612399  0.59625918    -0.73600
O1523       O  0.45315754  0.82399552  0.64841308    -0.74400
O1524       O  0.49896739  0.91602877  0.55928135    -0.73800
O1525       O  0.50481184  0.88454533  0.65177918    -0.74200
O1526       O  0.50221539  0.96029564  0.64857180    -0.74100
O1527       O  0.44293349  0.95420336  0.65284712    -0.73900
C1528       C  0.36029176  0.84264503  0.66250324     0.77900
C1529       C  0.39438862  0.79428513  0.57146593     0.78400
C1530       C  0.39308667  0.93196611  0.57203964     0.77300
C1531       C  0.53257803  0.93368829  0.57099007     0.77700
C1532       C  0.48544184  0.84857193  0.65942863     0.78800
C1533       C  0.47871722  0.96924968  0.66010636     0.77900
C1534       C  0.55849079  0.77800925  0.74048396     0.46200
H1535       H  0.56183066  0.77945437  0.71834312    -0.02800
C1536       C  0.55105678  0.77532645  0.79169305     0.46300
H1537       H  0.54778665  0.77458009  0.81380147    -0.02800
C1538       C  0.59794786  0.79604986  0.75506136    -0.16500
C1539       C  0.53802454  0.80012503  0.75086070    -0.16300
C1540       C  0.53388575  0.73569978  0.75150597    -0.16600
C1541       C  0.59412906  0.79381098  0.78229258    -0.16600
C1542       C  0.53501640  0.79953534  0.77809445    -0.16200
C1543       C  0.52925320  0.73426733  0.77864627    -0.16500
Zn1544     Zn  0.41955585  0.91770777  0.90660721     1.49700
Zn1545     Zn  0.41731919  0.83534328  0.90627283     1.49400
Zn1546     Zn  0.50000153  0.91531120  0.90510781     1.49100
Zn1547     Zn  0.44573272  0.88964232  0.95876217     1.49500
O1548       O  0.44588332  0.88955705  0.91987434    -1.83400
O1549       O  0.37925813  0.88582525  0.87938770    -0.74000
O1550       O  0.44908640  0.82711266  0.87839504    -0.73800
O1551       O  0.50659367  0.95525904  0.87720703    -0.73400
O1552       O  0.37182333  0.82577601  0.88388257    -0.74000
O1553       O  0.45459625  0.96300531  0.88359375    -0.73600
O1554       O  0.50913954  0.87954541  0.88122220    -0.74200
O1555       O  0.50462598  0.91928268  0.97122457    -0.73600
O1556       O  0.39877849  0.79384392  0.93518761    -0.74400
O1557       O  0.54176676  0.93836377  0.93403383    -0.73800
O1558       O  0.41635734  0.83061679  0.97204489    -0.74200
O1559       O  0.41608375  0.91888451  0.97232892    -0.74100
O1560       O  0.39659226  0.93622230  0.93548005    -0.73900
C1561       C  0.36396066  0.84995558  0.87214172     0.77900
C1562       C  0.48440525  0.84760613  0.86975801     0.78400
C1563       C  0.48536552  0.97009679  0.87042061     0.77300
C1564       C  0.53868935  0.93673439  0.95946232     0.77700
C1565       C  0.39987472  0.79664355  0.96050586     0.78800
C1566       C  0.39838387  0.93518838  0.96079785     0.77900
Zn1567     Zn  0.58066050  0.74856221  0.40125869     1.49700
Zn1568     Zn  0.57973593  0.83000662  0.40226769     1.49400
Zn1569     Zn  0.49869941  0.74725503  0.40229341     1.49100
Zn1570     Zn  0.55270961  0.77487359  0.45463479     1.49500
O1571       O  0.55302575  0.77517803  0.41570254    -1.83400
O1572       O  0.62241047  0.78319114  0.37471269    -0.74000
O1573       O  0.54560065  0.83796719  0.37664403    -0.73800
O1574       O  0.49149332  0.70725307  0.37470155    -0.73400
O1575       O  0.62362450  0.84065720  0.37735095    -0.74000
O1576       O  0.54697349  0.70491251  0.37654734    -0.73600
O1577       O  0.48781824  0.78205353  0.37955614    -0.74200
O1578       O  0.49373271  0.74523990  0.46807557    -0.73600
O1579       O  0.59945225  0.87119093  0.43129913    -0.74400
O1580       O  0.45719210  0.72431962  0.43131674    -0.73800
O1581       O  0.58189692  0.83366265  0.46815256    -0.74200
O1582       O  0.58232419  0.74544784  0.46714427    -0.74100
O1583       O  0.60233562  0.72850328  0.43008997    -0.73900
C1584       C  0.63464421  0.81838081  0.36638430     0.77900
C1585       C  0.51038052  0.81563747  0.36883212     0.78400
C1586       C  0.51403284  0.69507631  0.36569766     0.77300
C1587       C  0.45986720  0.72705712  0.45661267     0.77700
C1588       C  0.59837914  0.86793650  0.45663795     0.78800
C1589       C  0.60014759  0.72927110  0.45546002     0.77900
C1590       C  0.44325261  0.88808738  0.28784262     0.46200
H1591       H  0.44277806  0.88909350  0.31004709    -0.02800
C1592       C  0.44467624  0.88611235  0.23648350     0.46300
H1593       H  0.44541021  0.88533497  0.21427698    -0.02800
C1594       C  0.40234838  0.87123290  0.27539710    -0.16500
C1595       C  0.46855099  0.92892468  0.27498156    -0.16300
C1596       C  0.45973966  0.86256104  0.27696864    -0.16600
C1597       C  0.40299482  0.86934939  0.24813692    -0.16600
C1598       C  0.46851985  0.92799603  0.24771126    -0.16200
C1599       C  0.46140450  0.86234476  0.24970004    -0.16500
Zn1600     Zn  0.61087342  0.80518589  0.10243941     1.49700
Zn1601     Zn  0.55583779  0.77642907  0.14782247     1.49400
Zn1602     Zn  0.52764189  0.80546032  0.10349860     1.49100
Zn1603     Zn  0.52744086  0.72250614  0.10197786     1.49500
O1604       O  0.55545045  0.77766511  0.11045804    -1.83400
O1605       O  0.64240379  0.81933298  0.13723328    -0.74000
O1606       O  0.50672439  0.77014853  0.16329922    -0.73800
O1607       O  0.56529723  0.85522645  0.08227660    -0.73400
O1608       O  0.59931821  0.82517605  0.16276496    -0.74000
O1609       O  0.62284443  0.85531395  0.08186842    -0.73600
O1610       O  0.51378701  0.82112438  0.13935091    -0.74200
O1611       O  0.47825173  0.71109063  0.08128181    -0.73600
O1612       O  0.56174221  0.73222049  0.16085221    -0.74400
O1613       O  0.47736166  0.76816904  0.08293872    -0.73800
O1614       O  0.51097056  0.69050697  0.13662275    -0.74200
O1615       O  0.56479541  0.71024658  0.08105930    -0.74100
O1616       O  0.62244844  0.76766485  0.08111886    -0.73900
C1617       C  0.63307461  0.82870062  0.15943893     0.77900
C1618       C  0.50400270  0.80108106  0.16113653     0.78400
C1619       C  0.60195037  0.87112743  0.07570781     0.77300
C1620       C  0.46201505  0.73182273  0.07582412     0.77700
C1621       C  0.53068101  0.69891687  0.15819008     0.78800
C1622       C  0.60152147  0.73105236  0.07476324     0.77900
Zn1623     Zn  0.36122319  0.97310660  0.03196601     1.49700
Zn1624     Zn  0.61140787  0.97252069  0.03122252     1.49400
Zn1625     Zn  0.36100881  0.72197938  0.03186898     1.49100
Zn1626     Zn  0.66751696  0.00046813  0.97867974     1.49500
O1627       O  0.66691369  0.00032126  0.01811252    -1.83400
O1628       O  0.65729457  0.92485858  0.05415749    -0.74000
O1629       O  0.59964289  0.67595588  0.05307882    -0.73800
O1630       O  0.40888242  0.73383569  0.05424791    -0.73400
O1631       O  0.59971081  0.92384886  0.05323933    -0.74000
O1632       O  0.40945587  0.67695300  0.05374933    -0.73600
O1633       O  0.65686103  0.73310452  0.05327118    -0.74200
O1634       O  0.36431901  0.72562893  0.96512156    -0.73600
O1635       O  0.57203860  0.95312224  0.00101970    -0.74400
O1636       O  0.38181494  0.76220684  0.00196266    -0.73800
O1637       O  0.60966254  0.97221207  0.96429112    -0.74200
O1638       O  0.36295114  0.97073679  0.96524891    -0.74100
O1639       O  0.38129104  0.95260547  0.00222467    -0.73900
C1640       C  0.62064584  0.90865769  0.06033613     0.77900
C1641       C  0.62032350  0.71234535  0.05965122     0.78400
C1642       C  0.42475578  0.71322460  0.06060601     0.77300
C1643       C  0.38111343  0.75951924  0.97666479     0.77700
C1644       C  0.57543249  0.95510829  0.97568846     0.78800
C1645       C  0.37980884  0.95373245  0.97689749     0.77900
Zn1646     Zn  0.63590893  0.69261299  0.52738731     1.49700
Zn1647     Zn  0.63487649  0.94200785  0.52801150     1.49400
Zn1648     Zn  0.66381410  0.99731504  0.47482485     1.49100
Zn1649     Zn  0.38482427  0.69180615  0.52809375     1.49500
O1650       O  0.66318072  0.99759263  0.51434357    -1.83400
O1651       O  0.58617629  0.98859337  0.54892843    -0.74000
O1652       O  0.61512160  0.90181290  0.49814893    -0.73800
O1653       O  0.63562195  0.69373558  0.46035187    -0.73400
O1654       O  0.58542723  0.93088148  0.54929484    -0.74000
O1655       O  0.61674633  0.71236287  0.49697563    -0.73600
O1656       O  0.63418954  0.93899352  0.46123225    -0.74200
O1657       O  0.42522105  0.71144740  0.49809520    -0.73600
O1658       O  0.33840727  0.93013544  0.55009489    -0.74400
O1659       O  0.38896628  0.69199157  0.46125064    -0.73800
O1660       O  0.39578463  0.98727798  0.54982557    -0.74200
O1661       O  0.39624478  0.74089283  0.54984512    -0.74100
O1662       O  0.33973059  0.74204618  0.54888368    -0.73900
C1663       C  0.56976890  0.95188781  0.55532636     0.77900
C1664       C  0.61683838  0.90485088  0.47281396     0.78400
C1665       C  0.61854963  0.71084112  0.47168733     0.77300
C1666       C  0.42271844  0.70911902  0.47279508     0.77700
C1667       C  0.37486156  0.95069274  0.55636412     0.78800
C1668       C  0.37589084  0.75732929  0.55573175     0.77900
C1669       C  0.36949114  0.85327191  0.22973154    -0.04700
C1670       C  0.36732575  0.82528392  0.21124554    -0.32200
C1671       C  0.34609389  0.81841555  0.18775024     0.37100
C1672       C  0.65900042  0.83900201  0.18272365    -0.05100
C1673       C  0.32574577  0.86524870  0.20205775    -0.32100
C1674       C  0.34789412  0.87276876  0.22540331     0.37000
H1675       H  0.38419106  0.81035824  0.21433451     0.17400
O1676       O  0.67785117  0.79061550  0.17022199    -0.59500
H1677       H  0.64266824  0.88058335  0.19874492     0.17400
O1678       O  0.35077588  0.90135710  0.24269285    -0.59600
H1679       H  0.32814330  0.88722204  0.25531125     0.44400
H1680       H  0.36921780  0.80469891  0.15937960     0.44300
C1681       C  0.48559877  0.96153857  0.22893454    -0.04700
C1682       C  0.45974929  0.96218418  0.20994318    -0.32200
C1683       C  0.47415062  0.98349504  0.18624260     0.37100
C1684       C  0.51523067  0.67259559  0.18161844    -0.05100
C1685       C  0.54136102  0.00727763  0.20139793    -0.32100
C1686       C  0.52667857  0.98477755  0.22490982     0.37000
H1687       H  0.42797252  0.94396324  0.21278699     0.17400
O1688       O  0.44773438  0.98296146  0.16807185    -0.59500
H1689       H  0.57309947  0.69179204  0.19837356     0.17400
O1690       O  0.55245614  0.98342893  0.24276671    -0.59600
H1691       H  0.56102447  0.00710608  0.25416893     0.44400
H1692       H  0.43947991  0.95864660  0.15740119     0.44300
C1693       C  0.47866000  0.84445090  0.23248427    -0.04700
C1694       C  0.50880895  0.87043198  0.21495180    -0.32200
C1695       C  0.51657112  0.85657754  0.19141119     0.37100
C1696       C  0.49425392  0.81599064  0.18521234    -0.05100
C1697       C  0.46620633  0.78937253  0.20382876    -0.32100
C1698       C  0.45801873  0.80352042  0.22733171     0.37000
H1699       H  0.52450645  0.90213692  0.21864358     0.17400
O1700       O  0.54580860  0.88305438  0.17447354    -0.59500
H1701       H  0.44973836  0.75783285  0.19968135     0.17400
O1702       O  0.42764704  0.77776475  0.24383990    -0.59600
H1703       H  0.44046590  0.77013238  0.25786168     0.44400
H1704       H  0.57034793  0.88364497  0.18033204     0.44300
C1705       C  0.50383682  0.67195404  0.34072919    -0.04700
C1706       C  0.52504342  0.98623907  0.33361538    -0.32200
C1707       C  0.51749244  0.96558241  0.30971247     0.36100
C1708       C  0.48830460  0.96348577  0.29243958    -0.05100
C1709       C  0.46895680  0.98464012  0.29842326    -0.32100
C1710       C  0.47651147  0.00554913  0.32239505     0.37000
H1711       H  0.54693246  0.65308100  0.34687934     0.17400
O1712       O  0.53639619  0.94459747  0.30444950    -0.59500
H1713       H  0.44587168  0.98254158  0.28544830     0.17400
O1714       O  0.45715926  0.02617467  0.32755401    -0.59600
H1715       H  0.43083385  0.00614536  0.33481162     0.44400
H1716       H  0.56164780  0.96380679  0.29549304     0.44300
C1717       C  0.36808715  0.85787879  0.29331759    -0.04700
C1718       C  0.36979695  0.88561081  0.31183830    -0.32200
C1719       C  0.68203748  0.87326299  0.33585743     0.37100
C1720       C  0.65881909  0.83240500  0.34174159    -0.05100
C1721       C  0.32163320  0.80460422  0.32228594    -0.32100
C1722       C  0.34273204  0.81718881  0.29809961     0.37000
H1723       H  0.38996749  0.91704565  0.30852325     0.17400
O1724       O  0.68639765  0.90136443  0.35412920    -0.59500
H1725       H  0.30240292  0.77305235  0.32586088     0.17400
O1726       O  0.33974747  0.78964105  0.27979106    -0.59600
H1727       H  0.35647095  0.77907949  0.28665372     0.44400
H1728       H  0.66909661  0.91158840  0.34779240     0.44300
C1729       C  0.47197292  0.84232201  0.29607993    -0.04700
C1730       C  0.44420750  0.81928003  0.31589991    -0.32200
C1731       C  0.45626812  0.81114365  0.34001029     0.37100
C1732       C  0.49684454  0.82647543  0.34465540    -0.05100
C1733       C  0.52454294  0.84785681  0.32421857    -0.32100
C1734       C  0.51222485  0.85543508  0.29987018     0.37000
H1735       H  0.41323316  0.81005282  0.31348271     0.17400
O1736       O  0.42844034  0.79043895  0.35952170    -0.59500
H1737       H  0.55581819  0.85862507  0.32707886     0.17400
O1738       O  0.53995813  0.87853270  0.28094054    -0.59600
H1739       H  0.54419042  0.85968442  0.27005707     0.44400
H1740       H  0.41603052  0.76212782  0.35431696     0.44300
C1741       C  0.62579120  0.80715524  0.80227340    -0.04700
C1742       C  0.65508649  0.84726352  0.80363211    -0.32200
C1743       C  0.34473200  0.86208248  0.82663623     0.37100
C1744       C  0.33876873  0.83632873  0.84839920    -0.05100
C1745       C  0.64464735  0.79589247  0.84613567    -0.32100
C1746       C  0.62140837  0.78135228  0.82351043     0.37000
H1747       H  0.65860394  0.86755112  0.78759823     0.17400
O1748       O  0.37359941  0.90139254  0.82732185    -0.59500
H1749       H  0.64052879  0.77539337  0.86222120     0.17400
O1750       O  0.59407081  0.74167428  0.82242582    -0.59600
H1751       H  0.57445783  0.73684534  0.83679937     0.44400
H1752       H  0.35962919  0.91584638  0.83247655     0.44300
C1753       C  0.50770469  0.69913155  0.79592750    -0.04700
C1754       C  0.48221852  0.70102097  0.81492973    -0.32200
C1755       C  0.47584998  0.01541411  0.83954139     0.37100
C1756       C  0.49376425  0.99246218  0.84509437    -0.05100
C1757       C  0.51551226  0.65340374  0.82475035    -0.32100
C1758       C  0.52247991  0.67322301  0.80014108     0.37000
H1759       H  0.47047356  0.72068053  0.81177275     0.17400
O1760       O  0.45325860  0.02090423  0.85833043    -0.59500
H1761       H  0.52776258  0.63413714  0.82803471     0.17400
O1762       O  0.54575915  0.66913877  0.78115619    -0.59600
H1763       H  0.57343909  0.68894373  0.78564986     0.44400
H1764       H  0.47208043  0.04524907  0.86803533     0.44300
C1765       C  0.51912447  0.81904735  0.79503891    -0.04700
C1766       C  0.47987809  0.79658016  0.80397305    -0.32200
C1767       C  0.46809129  0.80494946  0.82842064     0.37100
C1768       C  0.49599292  0.83644332  0.84436279    -0.05100
C1769       C  0.53457310  0.86063371  0.83419477    -0.32100
C1770       C  0.54622240  0.85196504  0.80986139     0.37000
H1771       H  0.45901477  0.77067421  0.79289888     0.17400
O1772       O  0.42962312  0.78119516  0.83685674    -0.59500
H1773       H  0.55627813  0.88590046  0.84537653     0.17400
O1774       O  0.58482931  0.87450687  0.80126646    -0.59600
H1775       H  0.60098434  0.87095710  0.81500749     0.44400
H1776       H  0.41455257  0.79249270  0.82826074     0.44300
C1777       C  0.33814824  0.83116851  0.68819195    -0.04700
C1778       C  0.32910042  0.85815961  0.70053078    -0.32200
C1779       C  0.64413749  0.84991524  0.72561043     0.37100
C1780       C  0.63416331  0.81414877  0.73877489    -0.05100
C1781       C  0.64596275  0.78866851  0.72770966    -0.32100
C1782       C  0.66383436  0.79646676  0.70238578     0.37000
H1783       H  0.33560675  0.88561571  0.69060506     0.17400
O1784       O  0.63226461  0.87498844  0.73589784    -0.59500
H1785       H  0.63794377  0.76078283  0.73762993     0.17400
O1786       O  0.67254892  0.76936188  0.69150241    -0.59600
H1787       H  0.64803928  0.74986309  0.68230525     0.44400
H1788       H  0.32318769  0.89755575  0.74341393     0.44300
C1789       C  0.51805536  0.70252341  0.73262299    -0.04700
C1790       C  0.54528574  0.70163922  0.71471614    -0.32200
C1791       C  0.53312539  0.68146279  0.69070755     0.37100
C1792       C  0.49253646  0.99422698  0.68422111    -0.05100
C1793       C  0.46479658  0.99303749  0.70301106    -0.32100
C1794       C  0.47740788  0.68046463  0.72716866     0.37000
H1795       H  0.57662661  0.71873895  0.71863848     0.17400
O1796       O  0.56146636  0.68352504  0.67328585    -0.59500
H1797       H  0.43333775  0.97595062  0.69905923     0.17400
O1798       O  0.45014998  0.67968522  0.74509144    -0.59600
H1799       H  0.43539839  0.02382673  0.73552377     0.44400
H1800       H  0.56865310  0.66401302  0.68016197     0.44300
C1801       C  0.49857992  0.83611283  0.68332876    -0.04700
C1802       C  0.52543422  0.86514520  0.70101121    -0.32200
C1803       C  0.53569298  0.85415015  0.72501900     0.37100
C1804       C  0.51930289  0.81380543  0.73146735    -0.05100
C1805       C  0.49174426  0.78504340  0.71431577    -0.32100
C1806       C  0.48123384  0.79570797  0.69051106     0.37000
H1807       H  0.53846579  0.89648047  0.69630766     0.17400
O1808       O  0.56336922  0.88284141  0.74117313    -0.59500
H1809       H  0.47991646  0.75387806  0.71868603     0.17400
O1810       O  0.45546400  0.76625315  0.67386868    -0.59600
H1811       H  0.42872313  0.75710387  0.68159117     0.44400
H1812       H  0.54813322  0.89088507  0.75301023     0.44300
Zn1813     Zn  0.74401315  0.24467059  0.62655730     1.49700
Zn1814     Zn  0.74940714  0.16561431  0.62583563     1.49400
Zn1815     Zn  0.77370801  0.22020964  0.57300788     1.49100
Zn1816     Zn  0.82748971  0.24952941  0.62534282     1.49500
O1817       O  0.77347221  0.21999971  0.61207803    -1.83400
O1818       O  0.70053545  0.20817836  0.65117890    -0.74000
O1819       O  0.72723926  0.12457710  0.59679385    -0.73800
O1820       O  0.74472435  0.24985453  0.56011622    -0.73400
O1821       O  0.70872452  0.15588154  0.65369866    -0.74000
O1822       O  0.72354295  0.26518985  0.59738195    -0.73600
O1823       O  0.74405631  0.16161920  0.55964939    -0.74200
O1824       O  0.86852507  0.26949911  0.59628138    -0.73600
O1825       O  0.78647303  0.15734689  0.64843458    -0.74400
O1826       O  0.83235337  0.24934720  0.55930084    -0.73800
O1827       O  0.83814800  0.21788931  0.65178743    -0.74200
O1828       O  0.83554669  0.29363309  0.64858942    -0.74100
O1829       O  0.77628758  0.28760224  0.65283184    -0.73900
C1830       C  0.69361875  0.17598471  0.66249302     0.77900
C1831       C  0.72770963  0.12764114  0.57146090     0.78400
C1832       C  0.72646824  0.26530285  0.57203536     0.77300
C1833       C  0.86595952  0.26703169  0.57101295     0.77700
C1834       C  0.81876205  0.18192153  0.65944797     0.78800
C1835       C  0.81206346  0.30262388  0.66010475     0.77900
C1836       C  0.89180799  0.11138147  0.74048325     0.46200
H1837       H  0.89513409  0.11283849  0.71834140    -0.02800
C1838       C  0.88441205  0.10867166  0.79169480     0.46300
H1839       H  0.88115767  0.10791353  0.81380479    -0.02800
C1840       C  0.93127385  0.12938781  0.75504969    -0.16500
C1841       C  0.87137627  0.13351778  0.75088382    -0.16300
C1842       C  0.86718300  0.06906649  0.75149488    -0.16600
C1843       C  0.92747245  0.12712731  0.78228151    -0.16600
C1844       C  0.86839446  0.13291783  0.77811980    -0.16200
C1845       C  0.86257719  0.06762194  0.77863741    -0.16500
Zn1846     Zn  0.75278838  0.25100002  0.90661567     1.49700
Zn1847     Zn  0.75062417  0.16867456  0.90628474     1.49400
Zn1848     Zn  0.83328420  0.24868452  0.90512175     1.49100
Zn1849     Zn  0.77903424  0.22299124  0.95876922     1.49500
O1850       O  0.77916433  0.22289480  0.91988352    -1.83400
O1851       O  0.71248257  0.21908302  0.87941660    -0.74000
O1852       O  0.78241290  0.16044851  0.87841907    -0.73800
O1853       O  0.83986106  0.28865704  0.87724736    -0.73400
O1854       O  0.70511797  0.15906087  0.88389266    -0.74000
O1855       O  0.78777029  0.29627045  0.88356673    -0.73600
O1856       O  0.84242425  0.21295428  0.88121294    -0.74200
O1857       O  0.83793224  0.25260573  0.97122716    -0.73600
O1858       O  0.73208792  0.12719189  0.93519920    -0.74400
O1859       O  0.87507077  0.27170181  0.93403754    -0.73800
O1860       O  0.74963839  0.16396594  0.97205596    -0.74200
O1861       O  0.74941692  0.25226653  0.97233048    -0.74100
O1862       O  0.72984791  0.26953458  0.93548629    -0.73900
C1863       C  0.69722415  0.18322249  0.87216002     0.77900
C1864       C  0.81772126  0.18098224  0.86976967     0.78400
C1865       C  0.81859000  0.30343338  0.87043085     0.77300
C1866       C  0.87199602  0.27005601  0.95946577     0.77700
C1867       C  0.73316873  0.12999292  0.96051617     0.78800
C1868       C  0.73168794  0.26854283  0.96080275     0.77900
Zn1869     Zn  0.91398150  0.08190147  0.40126986     1.49700
Zn1870     Zn  0.91305888  0.16333655  0.40228299     1.49400
Zn1871     Zn  0.83202600  0.08060090  0.40230927     1.49100
Zn1872     Zn  0.88603206  0.10819760  0.45465482     1.49500
O1873       O  0.88634962  0.10851200  0.41571951    -1.83400
O1874       O  0.95569813  0.11652517  0.37469232    -0.74000
O1875       O  0.87893048  0.17128323  0.37664306    -0.73800
O1876       O  0.82482856  0.04062053  0.37470040    -0.73400
O1877       O  0.95694870  0.17400523  0.37736010    -0.74000
O1878       O  0.88028363  0.03823668  0.37657691    -0.73600
O1879       O  0.82112613  0.11540321  0.37958814    -0.74200
O1880       O  0.82706373  0.07857011  0.46809871    -0.73600
O1881       O  0.93276149  0.20450810  0.43132579    -0.74400
O1882       O  0.79052971  0.05765206  0.43133670    -0.73800
O1883       O  0.91522440  0.16698023  0.46818022    -0.74200
O1884       O  0.91562527  0.07875645  0.46716281    -0.74100
O1885       O  0.93565638  0.06183988  0.43010466    -0.73900
C1886       C  0.96793646  0.15171943  0.36636902     0.77900
C1887       C  0.84370215  0.14896616  0.36884188     0.78400
C1888       C  0.84736102  0.02842677  0.36570968     0.77300
C1889       C  0.79320141  0.06038821  0.45663278     0.77700
C1890       C  0.93169937  0.20125351  0.45666507     0.78800
C1891       C  0.93345258  0.06258712  0.45547543     0.77900
C1892       C  0.77657804  0.22141432  0.28784667     0.46200
H1893       H  0.77609242  0.22241122  0.31005123    -0.02800
C1894       C  0.77802521  0.21945684  0.23648688     0.46300
H1895       H  0.77877469  0.21869084  0.21428024    -0.02800
C1896       C  0.73567990  0.20457123  0.27539163    -0.16500
C1897       C  0.80188647  0.26225536  0.27499339    -0.16300
C1898       C  0.79306410  0.19588637  0.27697273    -0.16600
C1899       C  0.73634040  0.20269882  0.24812988    -0.16600
C1900       C  0.80186907  0.26133579  0.24772250    -0.16200
C1901       C  0.79472438  0.19566548  0.24970535    -0.16500
Zn1902     Zn  0.94419398  0.13852960  0.10242985     1.49700
Zn1903     Zn  0.88918390  0.10979040  0.14782452     1.49400
Zn1904     Zn  0.86095325  0.13879992  0.10350825     1.49100
Zn1905     Zn  0.86076352  0.05585503  0.10197541     1.49500
O1906       O  0.88877224  0.11100882  0.11046007    -1.83400
O1907       O  0.97574784  0.15265935  0.13721180    -0.74000
O1908       O  0.84006636  0.10348629  0.16331391    -0.73800
O1909       O  0.89860726  0.18858021  0.08230639    -0.73400
O1910       O  0.93269011  0.15854498  0.16274560    -0.74000
O1911       O  0.95615323  0.18866437  0.08187794    -0.73600
O1912       O  0.84706994  0.15443425  0.13935939    -0.74200
O1913       O  0.81156492  0.04444798  0.08128252    -0.73600
O1914       O  0.89508670  0.06558835  0.16086148    -0.74400
O1915       O  0.81068417  0.10153131  0.08292888    -0.73800
O1916       O  0.84432649  0.02386168  0.13662489    -0.74200
O1917       O  0.89811719  0.04360003  0.08104793    -0.74100
O1918       O  0.95576640  0.10102149  0.08109382    -0.73900
C1919       C  0.96643769  0.16204691  0.15941643     0.77900
C1920       C  0.83729558  0.13438895  0.16114365     0.78400
C1921       C  0.93525730  0.20448077  0.07573100     0.77300
C1922       C  0.79533512  0.06518430  0.07581549     0.77700
C1923       C  0.86403562  0.03227750  0.15819381     0.78800
C1924       C  0.93484073  0.06440587  0.07474542     0.77900
Zn1925     Zn  0.69452360  0.30643678  0.03197664     1.49700
Zn1926     Zn  0.94470023  0.30584654  0.03123289     1.49400
Zn1927     Zn  0.69431981  0.05532120  0.03186020     1.49100
Zn1928     Zn  0.00082686  0.33381433  0.97869711     1.49500
O1929       O  0.00021387  0.33365179  0.01812955    -1.83400
O1930       O  0.99058526  0.25819227  0.05416108    -0.74000
O1931       O  0.93296656  0.00930508  0.05306373    -0.73800
O1932       O  0.74221562  0.06720315  0.05422029    -0.73400
O1933       O  0.93300922  0.25720242  0.05327355    -0.74000
O1934       O  0.74277330  0.01031032  0.05374259    -0.73600
O1935       O  0.99018503  0.06644904  0.05326957    -0.74200
O1936       O  0.69767211  0.05897982  0.96512245    -0.73600
O1937       O  0.90533921  0.28641866  0.00102503    -0.74400
O1938       O  0.71507860  0.09555089  0.00196627    -0.73800
O1939       O  0.94297241  0.30555348  0.96430052    -0.74200
O1940       O  0.69626488  0.30409676  0.96526026    -0.74100
O1941       O  0.71460004  0.28595286  0.00223216    -0.73900
C1942       C  0.95394452  0.24200657  0.06035854     0.77900
C1943       C  0.95364469  0.04569390  0.05963960     0.78400
C1944       C  0.75808006  0.04658774  0.06059017     0.77300
C1945       C  0.71441443  0.09286744  0.97666978     0.77700
C1946       C  0.90873880  0.28842359  0.97569410     0.78800
C1947       C  0.71312217  0.28709049  0.97690549     0.77900
Zn1948     Zn  0.96921475  0.02593996  0.52740750     1.49700
Zn1949     Zn  0.96824731  0.27533965  0.52803265     1.49400
Zn1950     Zn  0.99717463  0.33064127  0.47483396     1.49100
Zn1951     Zn  0.71813671  0.02515277  0.52809878     1.49500
O1952       O  0.99654993  0.33092081  0.51435142    -1.83400
O1953       O  0.91954762  0.32192195  0.54893478    -0.74000
O1954       O  0.94846539  0.23513449  0.49817542    -0.73800
O1955       O  0.96894738  0.02707343  0.46036268    -0.73400
O1956       O  0.91881599  0.26421947  0.54933301    -0.74000
O1957       O  0.95002529  0.04565209  0.49699014    -0.73600
O1958       O  0.96752298  0.27231025  0.46125524    -0.74200
O1959       O  0.75854546  0.04476556  0.49811085    -0.73600
O1960       O  0.67178226  0.26347216  0.55010901    -0.74400
O1961       O  0.72230276  0.02535213  0.46126133    -0.73800
O1962       O  0.72917276  0.32060276  0.54980356    -0.74200
O1963       O  0.72955941  0.07426162  0.54982160    -0.74100
O1964       O  0.67303000  0.07538723  0.54889885    -0.73900
C1965       C  0.90315199  0.28522462  0.55535176     0.77900
C1966       C  0.95016978  0.23816917  0.47283995     0.78400
C1967       C  0.95184952  0.04415166  0.47170101     0.77300
C1968       C  0.75605055  0.04245486  0.47281052     0.77700
C1969       C  0.70824505  0.28402397  0.55635680     0.78800
C1970       C  0.70920147  0.09068714  0.55572473     0.77900
C1971       C  0.70285121  0.18662158  0.22971194    -0.04700
C1972       C  0.70072193  0.15866255  0.21121324    -0.32200
C1973       C  0.67949531  0.15179372  0.18771507     0.37100
C1974       C  0.99237553  0.17235631  0.18269589    -0.05100
C1975       C  0.65909836  0.19858329  0.20203710    -0.32100
C1976       C  0.68123246  0.20609571  0.22538821     0.37000
H1977       H  0.71760420  0.14375435  0.21429757     0.17400
O1978       O  0.01127186  0.12400642  0.17018252    -0.59500
H1979       H  0.97600332  0.21390109  0.19872964     0.17400
O1980       O  0.68406873  0.23464854  0.24269309    -0.59600
H1981       H  0.66141314  0.22048440  0.25529042     0.44400
H1982       H  0.70268622  0.13807491  0.15938666     0.44300
C1983       C  0.81894005  0.29488573  0.22895139    -0.04700
C1984       C  0.79307668  0.29555213  0.20997957    -0.32200
C1985       C  0.80745974  0.31684512  0.18626990     0.37100
C1986       C  0.84858990  0.00595316  0.18161980    -0.05100
C1987       C  0.87468185  0.34059851  0.20138949    -0.32100
C1988       C  0.86001677  0.31808913  0.22489881     0.37000
H1989       H  0.76130162  0.27734403  0.21283908     0.17400
O1990       O  0.78102858  0.31628202  0.16809971    -0.59500
H1991       H  0.90646222  0.02511620  0.19835751     0.17400
O1992       O  0.88580368  0.31667525  0.24271648    -0.59600
H1993       H  0.89435970  0.34029714  0.25417213     0.44400
H1994       H  0.77278217  0.29196071  0.15743766     0.44300
C1995       C  0.81193276  0.17772535  0.23249242    -0.04700
C1996       C  0.84214581  0.20369285  0.21499629    -0.32200
C1997       C  0.84990988  0.18984568  0.19145467     0.37100
C1998       C  0.82752318  0.14928085  0.18521460    -0.05100
C1999       C  0.79939339  0.12266311  0.20379066    -0.32100
C2000       C  0.79120589  0.13680500  0.22729706     0.37000
H2001       H  0.85790288  0.23538971  0.21871841     0.17400
O2002       O  0.87922747  0.21630801  0.17455759    -0.59500
H2003       H  0.78287025  0.09113565  0.19960960     0.17400
O2004       O  0.76076554  0.11106410  0.24376718    -0.59600
H2005       H  0.77352528  0.10345153  0.25784321     0.44400
H2006       H  0.90372395  0.21684879  0.18046241     0.44300
C2007       C  0.83718708  0.00531921  0.34073569    -0.04700
C2008       C  0.85839785  0.31956690  0.33362804    -0.32200
C2009       C  0.85082958  0.29890233  0.30972694     0.36100
C2010       C  0.82163814  0.29680939  0.29245907    -0.05100
C2011       C  0.80229188  0.31796313  0.29845128    -0.32100
C2012       C  0.80986485  0.33888087  0.32242053     0.37000
H2013       H  0.88026929  0.98643310  0.34690684     0.17400
O2014       O  0.86972017  0.27790608  0.30446032    -0.59500
H2015       H  0.77920019  0.31586403  0.28548284     0.17400
O2016       O  0.79052170  0.35951431  0.32758380    -0.59600
H2017       H  0.76422076  0.33950151  0.33488489     0.44400
H2018       H  0.89505785  0.29715831  0.29561625     0.44300
C2019       C  0.70140957  0.19121240  0.29330496    -0.04700
C2020       C  0.70308719  0.21894688  0.31181052    -0.32200
C2021       C  0.01528990  0.20660326  0.33581667     0.37100
C2022       C  0.99209253  0.16574530  0.34171424    -0.05100
C2023       C  0.65493581  0.13794170  0.32226905    -0.32100
C2024       C  0.67606237  0.15052283  0.29809152     0.37000
H2025       H  0.72325041  0.25038243  0.30849193     0.17400
O2026       O  0.01958665  0.23471280  0.35406149    -0.59500
H2027       H  0.63571655  0.10638941  0.32584865     0.17400
O2028       O  0.67311974  0.12297362  0.27979848    -0.59600
H2029       H  0.68976352  0.11235386  0.28671817     0.44400
H2030       H  0.00228800  0.24491544  0.34768155     0.44300
C2031       C  0.80530192  0.17564694  0.29608005    -0.04700
C2032       C  0.77753385  0.15258638  0.31589170    -0.32200
C2033       C  0.78958996  0.14444048  0.34000000     0.37100
C2034       C  0.83016776  0.15979284  0.34465674    -0.05100
C2035       C  0.85787145  0.18119321  0.32422576    -0.32100
C2036       C  0.84555610  0.18877285  0.29987604     0.37000
H2037       H  0.74655836  0.14334890  0.31346995     0.17400
O2038       O  0.76175091  0.12369923  0.35949702    -0.59500
H2039       H  0.88914843  0.19197698  0.32709190     0.17400
O2040       O  0.87329260  0.21188459  0.28095189    -0.59600
H2041       H  0.87749828  0.19303998  0.27004432     0.44400
H2042       H  0.74942668  0.09538835  0.35430801     0.44300
C2043       C  0.95914011  0.14044512  0.80225582    -0.04700
C2044       C  0.98842625  0.18055344  0.80363042    -0.32200
C2045       C  0.67803817  0.19536263  0.82664802     0.37100
C2046       C  0.67205907  0.16959730  0.84840656    -0.05100
C2047       C  0.97795946  0.12915905  0.84612542    -0.32100
C2048       C  0.95474556  0.11462922  0.82348798     0.37000
H2049       H  0.99194986  0.20085127  0.78760246     0.17400
O2050       O  0.70688121  0.23468008  0.82735453    -0.59500
H2051       H  0.97383230  0.10865274  0.86220810     0.17400
O2052       O  0.92741038  0.07495222  0.82239005    -0.59600
H2053       H  0.90781239  0.07010300  0.83677896     0.44400
H2054       H  0.69289596  0.24910026  0.83255670     0.44300
C2055       C  0.84104704  0.03248122  0.79591516    -0.04700
C2056       C  0.81559128  0.03437714  0.81493919    -0.32200
C2057       C  0.80908735  0.34874489  0.83953249     0.37100
C2058       C  0.82701215  0.32580926  0.84510854    -0.05100
C2059       C  0.84886765  0.98672939  0.82470732    -0.32100
C2060       C  0.85582614  0.00657169  0.80010487     0.37000
H2061       H  0.80385547  0.05404997  0.81180345     0.17400
O2062       O  0.78642135  0.35417908  0.85829139    -0.59500
H2063       H  0.86110833  0.96745031  0.82797309     0.17400
O2064       O  0.87911681  0.00253408  0.78110500    -0.59600
H2065       H  0.90683133  0.02172788  0.78594511     0.44400
H2066       H  0.80519052  0.37853586  0.86800716     0.44300
C2067       C  0.85252049  0.15242484  0.79508440    -0.04700
C2068       C  0.81325855  0.12997791  0.80399046    -0.32200
C2069       C  0.80144570  0.13834877  0.82842606     0.37100
C2070       C  0.82933610  0.16982143  0.84438621    -0.05100
C2071       C  0.86794054  0.19398708  0.83425092    -0.32100
C2072       C  0.87962006  0.18531106  0.80993234     0.37000
H2073       H  0.79239818  0.10408730  0.79290212     0.17400
O2074       O  0.76295581  0.11462481  0.83682753    -0.59500
H2075       H  0.88964169  0.21923362  0.84545017     0.17400
O2076       O  0.91825212  0.20781287  0.80137831    -0.59600
H2077       H  0.93435415  0.20422484  0.81514224     0.44400
H2078       H  0.74796529  0.12608056  0.82832330     0.44300
C2079       C  0.67145916  0.16450061  0.68817362    -0.04700
C2080       C  0.66241388  0.19149365  0.70051158    -0.32200
C2081       C  0.97744029  0.18324437  0.72558585     0.37100
C2082       C  0.96747865  0.14748400  0.73875533    -0.05100
C2083       C  0.97927545  0.12200202  0.72769094    -0.32100
C2084       C  0.99712923  0.12979001  0.70236233     0.37000
H2085       H  0.66892202  0.21895066  0.69058633     0.17400
O2086       O  0.96554166  0.20830433  0.73585969    -0.59500
H2087       H  0.97125551  0.09411638  0.73761185     0.17400
O2088       O  0.00580063  0.10266173  0.69146698    -0.59600
H2089       H  0.98129464  0.08321421  0.68224242     0.44400
H2090       H  0.65641086  0.23077418  0.74350838     0.44300
C2091       C  0.85135537  0.03589298  0.73260767    -0.04700
C2092       C  0.87858645  0.03502234  0.71469577    -0.32200
C2093       C  0.86642065  0.01479194  0.69070822     0.37100
C2094       C  0.82588794  0.32760407  0.68421931    -0.05100
C2095       C  0.79815068  0.32644720  0.70299755    -0.32100
C2096       C  0.81070243  0.01377410  0.72717725     0.37000
H2097       H  0.90992914  0.05215586  0.71860265     0.17400
O2098       O  0.89476009  0.01682963  0.67329608    -0.59500
H2099       H  0.76669413  0.30939967  0.69903119     0.17400
O2100       O  0.78344080  0.01296011  0.74511083    -0.59600
H2101       H  0.76877284  0.35724626  0.73551575     0.44400
H2102       H  0.90192327  0.99730411  0.68018049     0.44300
C2103       C  0.83189093  0.16947230  0.68335910    -0.04700
C2104       C  0.85877904  0.19851598  0.70102220    -0.32200
C2105       C  0.86903018  0.18753749  0.72504049     0.37100
C2106       C  0.85263013  0.14719695  0.73150676    -0.05100
C2107       C  0.82503130  0.11842578  0.71437844    -0.32100
C2108       C  0.81449833  0.12907526  0.69057638     0.37000
H2109       H  0.87183225  0.22984798  0.69630017     0.17400
O2110       O  0.89668837  0.21624089  0.74119696    -0.59500
H2111       H  0.81317726  0.08726108  0.71876922     0.17400
O2112       O  0.78863895  0.09960813  0.67397809    -0.59600
H2113       H  0.76192794  0.09056510  0.68171705     0.44400
H2114       H  0.88142713  0.22423058  0.75305291     0.44300
Zn2115     Zn  0.74400710  0.57799793  0.62656215     1.49700
Zn2116     Zn  0.74942313  0.49894453  0.62583970     1.49400
Zn2117     Zn  0.77369096  0.55354366  0.57300425     1.49100
Zn2118     Zn  0.82749122  0.58284895  0.62533159     1.49500
O2119       O  0.77346886  0.55332927  0.61207593    -1.83400
O2120       O  0.70053353  0.54149662  0.65119380    -0.74000
O2121       O  0.72722226  0.45790780  0.59679872    -0.73800
O2122       O  0.74466905  0.58315423  0.56012311    -0.73400
O2123       O  0.70877526  0.48923178  0.65372823    -0.74000
O2124       O  0.72352871  0.59852880  0.59739094    -0.73600
O2125       O  0.74407287  0.49494609  0.55965036    -0.74200
O2126       O  0.86851655  0.60277391  0.59626004    -0.73600
O2127       O  0.78651142  0.49065236  0.64840591    -0.74400
O2128       O  0.83233260  0.58273013  0.55928114    -0.73800
O2129       O  0.83813833  0.55121733  0.65178623    -0.74200
O2130       O  0.83557068  0.62697541  0.64856939    -0.74100
O2131       O  0.77630618  0.62093302  0.65282670    -0.73900
C2132       C  0.69364539  0.50931642  0.66251669     0.77900
C2133       C  0.72771573  0.46096893  0.57146475     0.78400
C2134       C  0.72643057  0.59861990  0.57204294     0.77300
C2135       C  0.86594347  0.60036555  0.57098979     0.77700
C2136       C  0.81878213  0.51524253  0.65943279     0.78800
C2137       C  0.81208720  0.63596229  0.66009038     0.77900
C2138       C  0.89184252  0.44471700  0.74048943     0.46200
H2139       H  0.89517831  0.44616318  0.71834825    -0.02800
C2140       C  0.88442503  0.44203742  0.79169892     0.46300
H2141       H  0.88115664  0.44129098  0.81380716    -0.02800
C2142       C  0.93129853  0.46271073  0.75506450    -0.16500
C2143       C  0.87142279  0.46687589  0.75087438    -0.16300
C2144       C  0.86720362  0.40240991  0.75150752    -0.16600
C2145       C  0.92748891  0.46047708  0.78229500    -0.16600
C2146       C  0.86842850  0.46628913  0.77810898    -0.16200
C2147       C  0.86258182  0.40098227  0.77864917    -0.16500
Zn2148     Zn  0.75286586  0.58437918  0.90662515     1.49700
Zn2149     Zn  0.75063923  0.50201595  0.90629694     1.49400
Zn2150     Zn  0.83329711  0.58198101  0.90513141     1.49100
Zn2151     Zn  0.77905238  0.55632367  0.95878912     1.49500
O2152       O  0.77919250  0.55622937  0.91989939    -1.83400
O2153       O  0.71264540  0.55251309  0.87935877    -0.74000
O2154       O  0.78240299  0.49376635  0.87841064    -0.73800
O2155       O  0.83985563  0.62191729  0.87723189    -0.73400
O2156       O  0.70513928  0.49244181  0.88391172    -0.74000
O2157       O  0.78790371  0.62972799  0.88364532    -0.73600
O2158       O  0.84243711  0.54622537  0.88124083    -0.74200
O2159       O  0.83793836  0.58594562  0.97124979    -0.73600
O2160       O  0.73210314  0.46053979  0.93522629    -0.74400
O2161       O  0.87507026  0.60501801  0.93405559    -0.73800
O2162       O  0.74967902  0.49730962  0.97208566    -0.74200
O2163       O  0.74942201  0.58557910  0.97235207    -0.74100
O2164       O  0.72985829  0.60284359  0.93550297    -0.73900
C2165       C  0.69733388  0.51663463  0.87213045     0.77900
C2166       C  0.81772356  0.51427759  0.86977689     0.78400
C2167       C  0.81864610  0.63678020  0.87045370     0.77300
C2168       C  0.87199849  0.60338686  0.95948464     0.77700
C2169       C  0.73319788  0.46333840  0.96054470     0.78800
C2170       C  0.73168797  0.60184646  0.96082060     0.77900
Zn2171     Zn  0.91403708  0.41525721  0.40128127     1.49700
Zn2172     Zn  0.91309392  0.49668369  0.40227226     1.49400
Zn2173     Zn  0.83206507  0.41394687  0.40231107     1.49100
Zn2174     Zn  0.88606401  0.44154430  0.45465021     1.49500
O2175       O  0.88639130  0.44186224  0.41571728    -1.83400
O2176       O  0.95577626  0.44988540  0.37472378    -0.74000
O2177       O  0.87896530  0.50461636  0.37662825    -0.73800
O2178       O  0.82487885  0.37396518  0.37471509    -0.73400
O2179       O  0.95700633  0.50735852  0.37736185    -0.74000
O2180       O  0.88034181  0.37159281  0.37658130    -0.73600
O2181       O  0.82115450  0.44874453  0.37958710    -0.74200
O2182       O  0.82709455  0.41191998  0.46809269    -0.73600
O2183       O  0.93274709  0.53785435  0.43131134    -0.74400
O2184       O  0.79056052  0.39097925  0.43133306    -0.73800
O2185       O  0.91523342  0.50032357  0.46816455    -0.74200
O2186       O  0.91566778  0.41211283  0.46717145    -0.74100
O2187       O  0.93570970  0.39520061  0.43011749    -0.73900
C2188       C  0.96800686  0.48507140  0.36638692     0.77900
C2189       C  0.84373145  0.48230474  0.36883670     0.78400
C2190       C  0.84741091  0.36177341  0.36572179     0.77300
C2191       C  0.79323171  0.39372557  0.45662849     0.77700
C2192       C  0.93168555  0.53459590  0.45665035     0.78800
C2193       C  0.93350100  0.39594615  0.45548741     0.77900
C2194       C  0.77653998  0.55468959  0.28782965     0.46200
H2195       H  0.77604406  0.55569131  0.31003380    -0.02800
C2196       C  0.77801001  0.55272755  0.23647066     0.46300
H2197       H  0.77876420  0.55195498  0.21426451    -0.02800
C2198       C  0.73564363  0.53781067  0.27536789    -0.16500
C2199       C  0.80182782  0.59553470  0.27497533    -0.16300
C2200       C  0.79306262  0.52918838  0.27696609    -0.16600
C2201       C  0.73631505  0.53593678  0.24810812    -0.16600
C2202       C  0.80182505  0.59461366  0.24770385    -0.16200
C2203       C  0.79474514  0.52897439  0.24969930    -0.16500
Zn2204     Zn  0.94416755  0.47184225  0.10242885     1.49700
Zn2205     Zn  0.88915451  0.44308685  0.14781232     1.49400
Zn2206     Zn  0.86094946  0.47212616  0.10350323     1.49100
Zn2207     Zn  0.86072523  0.38917167  0.10198560     1.49500
O2208       O  0.88874869  0.44432704  0.11045046    -1.83400
O2209       O  0.97569620  0.48593113  0.13721225    -0.74000
O2210       O  0.84002541  0.43675681  0.16329577    -0.73800
O2211       O  0.89862599  0.52190941  0.08229784    -0.73400
O2212       O  0.93264755  0.49184305  0.16273832    -0.74000
O2213       O  0.95617158  0.52199387  0.08189095    -0.73600
O2214       O  0.84709288  0.48775081  0.13936713    -0.74200
O2215       O  0.81152858  0.37775197  0.08130004    -0.73600
O2216       O  0.89507938  0.39889170  0.16083847    -0.74400
O2217       O  0.81066247  0.43484309  0.08293970    -0.73800
O2218       O  0.84426668  0.35718894  0.13663724    -0.74200
O2219       O  0.89807480  0.37691549  0.08106111    -0.74100
O2220       O  0.95572284  0.43434185  0.08108505    -0.73900
C2221       C  0.96638566  0.49531975  0.15941564     0.77900
C2222       C  0.83730232  0.46768850  0.16114497     0.78400
C2223       C  0.93528211  0.53781229  0.07573486     0.77300
C2224       C  0.79530127  0.39849016  0.07583560     0.77700
C2225       C  0.86400031  0.36559818  0.15819396     0.78800
C2226       C  0.93479319  0.39772417  0.07474502     0.77900
Zn2227     Zn  0.69455492  0.63976940  0.03198769     1.49700
Zn2228     Zn  0.94473944  0.63917751  0.03123325     1.49400
Zn2229     Zn  0.69429163  0.38864262  0.03188544     1.49100
Zn2230     Zn  0.00083014  0.66712515  0.97869538     1.49500
O2231       O  0.00024769  0.66698265  0.01812726    -1.83400
O2232       O  0.99063438  0.59154353  0.05419450    -0.74000
O2233       O  0.93290695  0.34262760  0.05305541    -0.73800
O2234       O  0.74216650  0.40050287  0.05426171    -0.73400
O2235       O  0.93304496  0.59051961  0.05325268    -0.74000
O2236       O  0.74273998  0.34361955  0.05375945    -0.73600
O2237       O  0.99013718  0.39976065  0.05327950    -0.74200
O2238       O  0.69766857  0.39232682  0.96514806    -0.73600
O2239       O  0.90535284  0.61976737  0.00104025    -0.74400
O2240       O  0.71509865  0.42888878  0.00199591    -0.73800
O2241       O  0.94297196  0.63885811  0.96431070    -0.74200
O2242       O  0.69626447  0.63739916  0.96527257    -0.74100
O2243       O  0.71460056  0.61925904  0.00224739    -0.73900
C2244       C  0.95398278  0.57534041  0.06036469     0.77900
C2245       C  0.95359141  0.37901181  0.05963801     0.78400
C2246       C  0.75803931  0.37989110  0.06061886     0.77300
C2247       C  0.71443313  0.42621143  0.97669831     0.77700
C2248       C  0.90874315  0.62175324  0.97570904     0.78800
C2249       C  0.71311804  0.62039099  0.97692070     0.77900
Zn2250     Zn  0.96924594  0.35926525  0.52741070     1.49700
Zn2251     Zn  0.96823210  0.60867248  0.52802037     1.49400
Zn2252     Zn  0.99714593  0.66396912  0.47482162     1.49100
Zn2253     Zn  0.71817659  0.35848761  0.52809968     1.49500
O2254       O  0.99653336  0.66425378  0.51433907    -1.83400
O2255       O  0.91951674  0.65525473  0.54889167    -0.74000
O2256       O  0.94844359  0.56846731  0.49816274    -0.73800
O2257       O  0.96899152  0.36042531  0.46037500    -0.73400
O2258       O  0.91881342  0.59756549  0.54932381    -0.74000
O2259       O  0.95005628  0.37898985  0.49700194    -0.73600
O2260       O  0.96749111  0.60564646  0.46124417    -0.74200
O2261       O  0.75858045  0.37812209  0.49810781    -0.73600
O2262       O  0.67175246  0.59679204  0.55010349    -0.74400
O2263       O  0.72233054  0.35866364  0.46126264    -0.73800
O2264       O  0.72914324  0.65391970  0.54980458    -0.74200
O2265       O  0.72958371  0.40758712  0.54983673    -0.74100
O2266       O  0.67305339  0.40871032  0.54889697    -0.73900
C2267       C  0.90313383  0.61856257  0.55532424     0.77900
C2268       C  0.95014288  0.57150576  0.47282742     0.78400
C2269       C  0.95189201  0.37750288  0.47171320     0.77300
C2270       C  0.75608138  0.37578977  0.47280826     0.77700
C2271       C  0.70821125  0.61734251  0.55636023     0.78800
C2272       C  0.70922073  0.42401181  0.55573098     0.77900
C2273       C  0.70282445  0.51986480  0.22969250    -0.04700
C2274       C  0.70067948  0.49190316  0.21119104    -0.32200
C2275       C  0.67942883  0.48503096  0.18770341     0.37100
C2276       C  0.99231299  0.50560157  0.18269697    -0.05100
C2277       C  0.65904894  0.53182702  0.20204339    -0.32100
C2278       C  0.68119795  0.53933551  0.22538549     0.37000
H2279       H  0.71756319  0.47699371  0.21426584     0.17400
O2280       O  0.01118601  0.45724053  0.17016557    -0.59500
H2281       H  0.97595639  0.54714974  0.19874556     0.17400
O2282       O  0.68404010  0.56788277  0.24269759    -0.59600
H2283       H  0.66149044  0.55368006  0.25536895     0.44400
H2284       H  0.70259350  0.47130446  0.15936237     0.44300
C2285       C  0.81889914  0.62816322  0.22892876    -0.04700
C2286       C  0.79305191  0.62879399  0.20992874    -0.32200
C2287       C  0.80745704  0.65012157  0.18623364     0.37100
C2288       C  0.84856281  0.33929126  0.18162923    -0.05100
C2289       C  0.87466460  0.67393566  0.20140515    -0.32100
C2290       C  0.85997970  0.65143620  0.22491763     0.37000
H2291       H  0.76127524  0.61055552  0.21276388     0.17400
O2292       O  0.78104281  0.64959186  0.16806264    -0.59500
H2293       H  0.90644767  0.35841371  0.19833001     0.17400
O2294       O  0.88576046  0.65013517  0.24279376    -0.59600
H2295       H  0.89429505  0.67381775  0.25418509     0.44400
H2296       H  0.77278914  0.62527942  0.15738944     0.44300
C2297       C  0.81199139  0.51106037  0.23249724    -0.04700
C2298       C  0.84216746  0.53702900  0.21497831    -0.32200
C2299       C  0.84992970  0.52316636  0.19144270     0.37100
C2300       C  0.82756687  0.48259014  0.18522740    -0.05100
C2301       C  0.79948951  0.45597766  0.20383131    -0.32100
C2302       C  0.79131906  0.47013223  0.22733822     0.37000
H2303       H  0.85789190  0.56873221  0.21867770     0.17400
O2304       O  0.87921650  0.54962412  0.17452562    -0.59500
H2305       H  0.78299194  0.42444217  0.19967341     0.17400
O2306       O  0.76094331  0.44439056  0.24384915    -0.59600
H2307       H  0.77371828  0.43650596  0.25774993     0.44400
H2308       H  0.90373760  0.55022076  0.18043586     0.44300
C2309       C  0.83721991  0.33865621  0.34075234    -0.04700
C2310       C  0.85835429  0.65287229  0.33359957    -0.32200
C2311       C  0.85078373  0.63220757  0.30969802     0.36100
C2312       C  0.82157018  0.63009019  0.29244134    -0.05100
C2313       C  0.80221471  0.65123332  0.29843887    -0.32100
C2314       C  0.80980695  0.67217082  0.32240120     0.37000
H2315       H  0.88029537  0.31976080  0.34691455     0.17400
O2316       O  0.86970919  0.61124941  0.30441462    -0.59500
H2317       H  0.77911410  0.64912444  0.28547544     0.17400
O2318       O  0.79048708  0.69282920  0.32755668    -0.59600
H2319       H  0.76419153  0.67283780  0.33487722     0.44400
H2320       H  0.89497589  0.63049123  0.29548880     0.44300
C2321       C  0.70136707  0.52445976  0.29327474    -0.04700
C2322       C  0.70303293  0.55222144  0.31175128    -0.32200
C2323       C  0.01528680  0.53991505  0.33577715     0.37100
C2324       C  0.99214289  0.49906712  0.34172206    -0.05100
C2325       C  0.65498103  0.47123109  0.32230078    -0.32100
C2326       C  0.67605291  0.48377495  0.29810101     0.37000
H2327       H  0.72315782  0.58365567  0.30839557     0.17400
O2328       O  0.01957497  0.56805874  0.35398894    -0.59500
H2329       H  0.63579053  0.43968241  0.32591215     0.17400
O2330       O  0.67307917  0.45619937  0.27981934    -0.59600
H2331       H  0.68962219  0.44548695  0.28678073     0.44400
H2332       H  0.00205755  0.57804094  0.34768494     0.44300
C2333       C  0.80530328  0.50896109  0.29608169    -0.04700
C2334       C  0.77754543  0.48593642  0.31590963    -0.32200
C2335       C  0.78961551  0.47782460  0.34002459     0.37100
C2336       C  0.83019138  0.49313429  0.34465727    -0.05100
C2337       C  0.85788155  0.51449296  0.32421072    -0.32100
C2338       C  0.84555636  0.52206909  0.29986422     0.37000
H2339       H  0.74657084  0.47671353  0.31349602     0.17400
O2340       O  0.76180060  0.45717773  0.35955475    -0.59500
H2341       H  0.88915650  0.52525215  0.32706386     0.17400
O2342       O  0.87328463  0.54516371  0.28093073    -0.59600
H2343       H  0.87755112  0.52632004  0.27006760     0.44400
H2344       H  0.74935570  0.42885469  0.35437350     0.44300
C2345       C  0.95915622  0.47380673  0.80227028    -0.04700
C2346       C  0.98851570  0.51389636  0.80359157    -0.32200
C2347       C  0.67818006  0.52872711  0.82658679     0.37100
C2348       C  0.67217173  0.50300038  0.84837569    -0.05100
C2349       C  0.97799657  0.46257596  0.84614537    -0.32100
C2350       C  0.95473123  0.44802780  0.82353414     0.37000
H2351       H  0.99206445  0.53416795  0.78753943     0.17400
O2352       O  0.70709333  0.56802183  0.82724433    -0.59500
H2353       H  0.97384037  0.44209628  0.86225318     0.17400
O2354       O  0.92731570  0.40836880  0.82249526    -0.59600
H2355       H  0.90774660  0.40361710  0.83688441     0.44400
H2356       H  0.69316513  0.58252255  0.83238562     0.44300
C2357       C  0.84104140  0.36585214  0.79593320    -0.04700
C2358       C  0.81555459  0.36774020  0.81493626    -0.32200
C2359       C  0.80910498  0.68205109  0.83953369     0.37100
C2360       C  0.82704120  0.65912712  0.84511762    -0.05100
C2361       C  0.84883402  0.32010525  0.82474598    -0.32100
C2362       C  0.85582561  0.33995068  0.80014582     0.37000
H2363       H  0.80382001  0.38741111  0.81178487     0.17400
O2364       O  0.78644887  0.68750277  0.85829091    -0.59500
H2365       H  0.86108128  0.30083544  0.82802845     0.17400
O2366       O  0.87915256  0.33591529  0.78117457    -0.59600
H2367       H  0.90682589  0.35564163  0.78574254     0.44400
H2368       H  0.80523346  0.71183619  0.86802161     0.44300
C2369       C  0.85255108  0.48580377  0.79506439    -0.04700
C2370       C  0.81328025  0.46336120  0.80395542    -0.32200
C2371       C  0.80146027  0.47169234  0.82840371     0.37100
C2372       C  0.82934820  0.50313081  0.84438816    -0.05100
C2373       C  0.86796510  0.52729201  0.83426997    -0.32100
C2374       C  0.87965081  0.51865633  0.80993843     0.37000
H2375       H  0.79242032  0.43749253  0.79284860     0.17400
O2376       O  0.76296892  0.44795300  0.83679674    -0.59500
H2377       H  0.88966904  0.55250944  0.84548980     0.17400
O2378       O  0.91828743  0.54116580  0.80139315    -0.59600
H2379       H  0.93438520  0.53755450  0.81514898     0.44400
H2380       H  0.74799049  0.45945986  0.82834326     0.44300
C2381       C  0.67148441  0.49782345  0.68819696    -0.04700
C2382       C  0.66244554  0.52481665  0.70054139    -0.32200
C2383       C  0.97747624  0.51656415  0.72561664     0.37100
C2384       C  0.96750735  0.48079842  0.73877836    -0.05100
C2385       C  0.97929054  0.45530993  0.72770702    -0.32100
C2386       C  0.99714046  0.46310109  0.70237638     0.37000
H2387       H  0.66895566  0.55227700  0.69062039     0.17400
O2388       O  0.96557279  0.54161826  0.73589508    -0.59500
H2389       H  0.97126169  0.42741864  0.73762298     0.17400
O2390       O  0.00579217  0.43596598  0.69146798    -0.59600
H2391       H  0.98118975  0.41637333  0.68240420     0.44400
H2392       H  0.65645590  0.56412843  0.74349758     0.44300
C2393       C  0.85136959  0.36922925  0.73262380    -0.04700
C2394       C  0.87859714  0.36832935  0.71472194    -0.32200
C2395       C  0.86643305  0.34811587  0.69072651     0.37100
C2396       C  0.82591243  0.66093938  0.68420565    -0.05100
C2397       C  0.79817310  0.65976467  0.70298935    -0.32100
C2398       C  0.81072111  0.34715575  0.72717435     0.37000
H2399       H  0.90993768  0.38542698  0.71864333     0.17400
O2400       O  0.89476963  0.35011620  0.67332687    -0.59500
H2401       H  0.76671674  0.64271804  0.69902225     0.17400
O2402       O  0.78346188  0.34635776  0.74510299    -0.59600
H2403       H  0.76875523  0.69051359  0.73548498     0.44400
H2404       H  0.90195149  0.33062212  0.68024687     0.44300
C2405       C  0.83192461  0.50280431  0.68334254    -0.04700
C2406       C  0.85880825  0.53185623  0.70100449    -0.32200
C2407       C  0.86907375  0.52088761  0.72502100     0.37100
C2408       C  0.85268512  0.48054918  0.73148836    -0.05100
C2409       C  0.82509427  0.45177152  0.71436113    -0.32100
C2410       C  0.81455479  0.46240952  0.69055799     0.37000
H2411       H  0.87184954  0.56318673  0.69628184     0.17400
O2412       O  0.89673541  0.54959741  0.74117277    -0.59500
H2413       H  0.81325353  0.42061032  0.71875225     0.17400
O2414       O  0.78871949  0.43293497  0.67395410    -0.59600
H2415       H  0.76200932  0.42378043  0.68173301     0.44400
H2416       H  0.88148001  0.55760827  0.75301741     0.44300
Zn2417     Zn  0.74398753  0.91131397  0.62655490     1.49700
Zn2418     Zn  0.74941521  0.83227151  0.62583526     1.49400
Zn2419     Zn  0.77365694  0.88685977  0.57299868     1.49100
Zn2420     Zn  0.82747256  0.91617598  0.62533189     1.49500
O2421       O  0.77345080  0.88665012  0.61206975    -1.83400
O2422       O  0.70049416  0.87481123  0.65116908    -0.74000
O2423       O  0.72726159  0.79122622  0.59679893    -0.73800
O2424       O  0.74463454  0.91647841  0.56011418    -0.73400
O2425       O  0.70876013  0.82256245  0.65371849    -0.74000
O2426       O  0.72354161  0.93188811  0.59738846    -0.73600
O2427       O  0.74403605  0.82826072  0.55965146    -0.74200
O2428       O  0.86848600  0.93612397  0.59625920    -0.73600
O2429       O  0.78649085  0.82399553  0.64841310    -0.74400
O2430       O  0.83230075  0.91602877  0.55928136    -0.73800
O2431       O  0.83814514  0.88454534  0.65177920    -0.74200
O2432       O  0.83554872  0.96029564  0.64857181    -0.74100
O2433       O  0.77626682  0.95420337  0.65284713    -0.73900
C2434       C  0.69362507  0.84264504  0.66250325     0.77900
C2435       C  0.72772194  0.79428513  0.57146594     0.78400
C2436       C  0.72641999  0.93196610  0.57203964     0.77300
C2437       C  0.86591138  0.93368828  0.57099009     0.77700
C2438       C  0.81877515  0.84857194  0.65942866     0.78800
C2439       C  0.81205055  0.96924968  0.66010637     0.77900
C2440       C  0.89182416  0.77800927  0.74048396     0.46200
H2441       H  0.89516402  0.77945439  0.71834312    -0.02800
C2442       C  0.88439018  0.77532645  0.79169305     0.46300
H2443       H  0.88112007  0.77458010  0.81380147    -0.02800
C2444       C  0.93128124  0.79604984  0.75506135    -0.16500
C2445       C  0.87135794  0.80012507  0.75086071    -0.16300
C2446       C  0.86721909  0.73569979  0.75150596    -0.16600
C2447       C  0.92746246  0.79381099  0.78229256    -0.16600
C2448       C  0.86834980  0.79953536  0.77809447    -0.16200
C2449       C  0.86258658  0.73426734  0.77864627    -0.16500
Zn2450     Zn  0.75288920  0.91770779  0.90660720     1.49700
Zn2451     Zn  0.75065251  0.83534325  0.90627282     1.49400
Zn2452     Zn  0.83333487  0.91531120  0.90510779     1.49100
Zn2453     Zn  0.77906605  0.88964232  0.95876214     1.49500
O2454       O  0.77921665  0.88955704  0.91987431    -1.83400
O2455       O  0.71259146  0.88582525  0.87938772    -0.74000
O2456       O  0.78241970  0.82711257  0.87839506    -0.73800
O2457       O  0.83992708  0.95525907  0.87720701    -0.73400
O2458       O  0.70515666  0.82577601  0.88388256    -0.74000
O2459       O  0.78792964  0.96300530  0.88359373    -0.73600
O2460       O  0.84247281  0.87954538  0.88122219    -0.74200
O2461       O  0.83795930  0.91928268  0.97122455    -0.73600
O2462       O  0.73211179  0.79384388  0.93518758    -0.74400
O2463       O  0.87510008  0.93836376  0.93403382    -0.73800
O2464       O  0.74969066  0.83061679  0.97204485    -0.74200
O2465       O  0.74941708  0.91888450  0.97232893    -0.74100
O2466       O  0.72992560  0.93622231  0.93548006    -0.73900
C2467       C  0.69729398  0.84995559  0.87214173     0.77900
C2468       C  0.81773854  0.84760607  0.86975802     0.78400
C2469       C  0.81869892  0.97009680  0.87042059     0.77300
C2470       C  0.87202267  0.93673439  0.95946231     0.77700
C2471       C  0.73320803  0.79664353  0.96050584     0.78800
C2472       C  0.73171720  0.93518838  0.96079787     0.77900
Zn2473     Zn  0.91399381  0.74856218  0.40125868     1.49700
Zn2474     Zn  0.91306925  0.83000661  0.40226769     1.49400
Zn2475     Zn  0.83203273  0.74725503  0.40229341     1.49100
Zn2476     Zn  0.88604294  0.77487358  0.45463478     1.49500
O2477       O  0.88635907  0.77517802  0.41570254    -1.83400
O2478       O  0.95574379  0.78319114  0.37471268    -0.74000
O2479       O  0.87893397  0.83796718  0.37664403    -0.73800
O2480       O  0.82482664  0.70725307  0.37470155    -0.73400
O2481       O  0.95695781  0.84065718  0.37735094    -0.74000
O2482       O  0.88030681  0.70491252  0.37654733    -0.73600
O2483       O  0.82115156  0.78205353  0.37955614    -0.74200
O2484       O  0.82706603  0.74523990  0.46807557    -0.73600
O2485       O  0.93278556  0.87119091  0.43129913    -0.74400
O2486       O  0.79052542  0.72431962  0.43131674    -0.73800
O2487       O  0.91523023  0.83366262  0.46815256    -0.74200
O2488       O  0.91565753  0.74544786  0.46714427    -0.74100
O2489       O  0.93566884  0.72850316  0.43008996    -0.73900
C2490       C  0.96797751  0.81838081  0.36638428     0.77900
C2491       C  0.84371384  0.81563747  0.36883212     0.78400
C2492       C  0.84736615  0.69507632  0.36569766     0.77300
C2493       C  0.79320052  0.72705712  0.45661267     0.77700
C2494       C  0.93171244  0.86793648  0.45663795     0.78800
C2495       C  0.93348087  0.72927105  0.45546001     0.77900
C2496       C  0.77658591  0.88808735  0.28784262     0.46200
H2497       H  0.77611135  0.88909347  0.31004708    -0.02800
C2498       C  0.77800956  0.88611237  0.23648350     0.46300
H2499       H  0.77874352  0.88533500  0.21427698    -0.02800
C2500       C  0.73568168  0.87123287  0.27539709    -0.16500
C2501       C  0.80188428  0.92892466  0.27498157    -0.16300
C2502       C  0.79307298  0.86256104  0.27696863    -0.16600
C2503       C  0.73632813  0.86934939  0.24813692    -0.16600
C2504       C  0.80185314  0.92799604  0.24771126    -0.16200
C2505       C  0.79473782  0.86234479  0.24970003    -0.16500
Zn2506     Zn  0.94420677  0.80518590  0.10243941     1.49700
Zn2507     Zn  0.88917117  0.77642909  0.14782246     1.49400
Zn2508     Zn  0.86097523  0.80546031  0.10349857     1.49100
Zn2509     Zn  0.86077418  0.72250614  0.10197786     1.49500
O2510       O  0.88878379  0.77766512  0.11045804    -1.83400
O2511       O  0.97573716  0.81933297  0.13723329    -0.74000
O2512       O  0.84005781  0.77014858  0.16329925    -0.73800
O2513       O  0.89863059  0.85522641  0.08227653    -0.73400
O2514       O  0.93265159  0.82517607  0.16276496    -0.74000
O2515       O  0.95617782  0.85531397  0.08186843    -0.73600
O2516       O  0.84712034  0.82112437  0.13935090    -0.74200
O2517       O  0.81158505  0.71109063  0.08128181    -0.73600
O2518       O  0.89507555  0.73222049  0.16085220    -0.74400
O2519       O  0.81069499  0.76816904  0.08293872    -0.73800
O2520       O  0.84430388  0.69050698  0.13662275    -0.74200
O2521       O  0.89812874  0.71024658  0.08105930    -0.74100
O2522       O  0.95578176  0.76766485  0.08111885    -0.73900
C2523       C  0.96640799  0.82870062  0.15943893     0.77900
C2524       C  0.83733606  0.80108108  0.16113654     0.78400
C2525       C  0.93528375  0.87112741  0.07570777     0.77300
C2526       C  0.79534837  0.73182273  0.07582412     0.77700
C2527       C  0.86401434  0.69891688  0.15819009     0.78800
C2528       C  0.93485479  0.73105236  0.07476324     0.77900
Zn2529     Zn  0.69455650  0.97310659  0.03196602     1.49700
Zn2530     Zn  0.94474121  0.97252069  0.03122251     1.49400
Zn2531     Zn  0.69434213  0.72197939  0.03186897     1.49100
Zn2532     Zn  0.00085029  0.00046814  0.97867974     1.49500
O2533       O  0.00024702  0.00032127  0.01811252    -1.83400
O2534       O  0.99062796  0.92485860  0.05415749    -0.74000
O2535       O  0.93297622  0.67595588  0.05307882    -0.73800
O2536       O  0.74221574  0.73383569  0.05424791    -0.73400
O2537       O  0.93304419  0.92384886  0.05323932    -0.74000
O2538       O  0.74278919  0.67695301  0.05374933    -0.73600
O2539       O  0.99019436  0.73310452  0.05327118    -0.74200
O2540       O  0.69765233  0.72562893  0.96512155    -0.73600
O2541       O  0.90537192  0.95312223  0.00101969    -0.74400
O2542       O  0.71514827  0.76220686  0.00196264    -0.73800
O2543       O  0.94299587  0.97221208  0.96429112    -0.74200
O2544       O  0.69628448  0.97073679  0.96524893    -0.74100
O2545       O  0.71462437  0.95260545  0.00222469    -0.73900
C2546       C  0.95397922  0.90865769  0.06033611     0.77900
C2547       C  0.95365682  0.71234535  0.05965122     0.78400
C2548       C  0.75808911  0.71322460  0.06060601     0.77300
C2549       C  0.71444675  0.75951924  0.97666478     0.77700
C2550       C  0.90876582  0.95510828  0.97568845     0.78800
C2551       C  0.71314217  0.95373245  0.97689752     0.77900
Zn2552     Zn  0.96924226  0.69261298  0.52738732     1.49700
Zn2553     Zn  0.96820984  0.94200784  0.52801149     1.49400
Zn2554     Zn  0.99714742  0.99731501  0.47482485     1.49100
Zn2555     Zn  0.71815759  0.69180615  0.52809375     1.49500
O2556       O  0.99651404  0.99759262  0.51434356    -1.83400
O2557       O  0.91950963  0.98859335  0.54892844    -0.74000
O2558       O  0.94845489  0.90181288  0.49814892    -0.73800
O2559       O  0.96895526  0.69373556  0.46035186    -0.73400
O2560       O  0.91876062  0.93088149  0.54929490    -0.74000
O2561       O  0.95007968  0.71236288  0.49697563    -0.73600
O2562       O  0.96752282  0.93899349  0.46123224    -0.74200
O2563       O  0.75855438  0.71144740  0.49809520    -0.73600
O2564       O  0.67174059  0.93013543  0.55009489    -0.74400
O2565       O  0.72229960  0.69199157  0.46125064    -0.73800
O2566       O  0.72911795  0.98727798  0.54982558    -0.74200
O2567       O  0.72957810  0.74089283  0.54984512    -0.74100
O2568       O  0.67306392  0.74204618  0.54888368    -0.73900
C2569       C  0.90310227  0.95188781  0.55532640     0.77900
C2570       C  0.95017166  0.90485085  0.47281396     0.78400
C2571       C  0.95188294  0.71084110  0.47168733     0.77300
C2572       C  0.75605177  0.70911902  0.47279508     0.77700
C2573       C  0.70819488  0.95069273  0.55636412     0.78800
C2574       C  0.70922416  0.75732929  0.55573175     0.77900
C2575       C  0.70282447  0.85327195  0.22973151    -0.04700
C2576       C  0.70065905  0.82528393  0.21124553    -0.32200
C2577       C  0.67942719  0.81841555  0.18775023     0.37100
C2578       C  0.99233377  0.83900199  0.18272366    -0.05100
C2579       C  0.65907912  0.86524875  0.20205771    -0.32100
C2580       C  0.68122749  0.87276883  0.22540327     0.37000
H2581       H  0.71752433  0.81035823  0.21433451     0.17400
O2582       O  0.01118453  0.79061550  0.17022199    -0.59500
H2583       H  0.97600155  0.88058330  0.19874496     0.17400
O2584       O  0.68410920  0.90135714  0.24269283    -0.59600
H2585       H  0.66147664  0.88722204  0.25531123     0.44400
H2586       H  0.70255111  0.80469891  0.15937961     0.44300
C2587       C  0.81893209  0.96153859  0.22893455    -0.04700
C2588       C  0.79308266  0.96218418  0.20994314    -0.32200
C2589       C  0.80748403  0.98349500  0.18624254     0.37100
C2590       C  0.84856402  0.67259560  0.18161844    -0.05100
C2591       C  0.87469440  0.00727764  0.20139798    -0.32100
C2592       C  0.86001190  0.98477757  0.22490987     0.37000
H2593       H  0.76130588  0.94396324  0.21278692     0.17400
O2594       O  0.78106783  0.98296134  0.16807173    -0.59500
H2595       H  0.90643282  0.69179208  0.19837356     0.17400
O2596       O  0.88578941  0.98342889  0.24276677    -0.59600
H2597       H  0.89435770  0.00710600  0.25416902     0.44400
H2598       H  0.77281328  0.95864634  0.15740115     0.44300
C2599       C  0.81199333  0.84445093  0.23248426    -0.04700
C2600       C  0.84214227  0.87043201  0.21495178    -0.32200
C2601       C  0.84990445  0.85657756  0.19141118     0.37100
C2602       C  0.82758727  0.81599066  0.18521234    -0.05100
C2603       C  0.79953968  0.78937255  0.20382876    -0.32100
C2604       C  0.79135207  0.80352046  0.22733170     0.37000
H2605       H  0.85783974  0.90213695  0.21864355     0.17400
O2606       O  0.87914194  0.88305439  0.17447353    -0.59500
H2607       H  0.78307171  0.75783288  0.19968136     0.17400
O2608       O  0.76098039  0.77776480  0.24383991    -0.59600
H2609       H  0.77379924  0.77013240  0.25786167     0.44400
H2610       H  0.90368126  0.88364486  0.18033196     0.44300
C2611       C  0.83717012  0.67195404  0.34072918    -0.04700
C2612       C  0.85837670  0.98623900  0.33361539    -0.32200
C2613       C  0.85082572  0.96558236  0.30971248     0.36100
C2614       C  0.82163790  0.96348574  0.29243959    -0.05100
C2615       C  0.80229011  0.98464009  0.29842327    -0.32100
C2616       C  0.80984476  0.00554908  0.32239507     0.37000
H2617       H  0.88026577  0.65308100  0.34687935     0.17400
O2618       O  0.86972950  0.94459745  0.30444949    -0.59500
H2619       H  0.77920500  0.98254158  0.28544830     0.17400
O2620       O  0.79049258  0.02617466  0.32755400    -0.59600
H2621       H  0.76416717  0.00614537  0.33481162     0.44400
H2622       H  0.89498112  0.96380680  0.29549305     0.44300
C2623       C  0.70142045  0.85787878  0.29331759    -0.04700
C2624       C  0.70313028  0.88561080  0.31183830    -0.32200
C2625       C  0.01537075  0.87326299  0.33585740     0.37100
C2626       C  0.99215237  0.83240500  0.34174156    -0.05100
C2627       C  0.65496652  0.80460421  0.32228594    -0.32100
C2628       C  0.67606535  0.81718880  0.29809961     0.37000
H2629       H  0.72330082  0.91704564  0.30852326     0.17400
O2630       O  0.01973098  0.90136442  0.35412919    -0.59500
H2631       H  0.63573624  0.77305234  0.32586089     0.17400
O2632       O  0.67308078  0.78964104  0.27979106    -0.59600
H2633       H  0.68980427  0.77907949  0.28665372     0.44400
H2634       H  0.00242997  0.91158844  0.34779241     0.44300
C2635       C  0.80530625  0.84232201  0.29607993    -0.04700
C2636       C  0.77754083  0.81928003  0.31589990    -0.32200
C2637       C  0.78960144  0.81114365  0.34001029     0.37100
C2638       C  0.83017786  0.82647543  0.34465540    -0.05100
C2639       C  0.85787626  0.84785681  0.32421857    -0.32100
C2640       C  0.84555817  0.85543508  0.29987018     0.37000
H2641       H  0.74656648  0.81005282  0.31348270     0.17400
O2642       O  0.76177367  0.79043895  0.35952171    -0.59500
H2643       H  0.88915151  0.85862507  0.32707886     0.17400
O2644       O  0.87329146  0.87853270  0.28094054    -0.59600
H2645       H  0.87752374  0.85968442  0.27005707     0.44400
H2646       H  0.74936369  0.76212784  0.35431689     0.44300
C2647       C  0.95912461  0.80715524  0.80227337    -0.04700
C2648       C  0.98841991  0.84726351  0.80363208    -0.32200
C2649       C  0.67806526  0.86208251  0.82663629     0.37100
C2650       C  0.67210203  0.83632875  0.84839923    -0.05100
C2651       C  0.97798070  0.79589244  0.84613565    -0.32100
C2652       C  0.95474176  0.78135227  0.82351039     0.37000
H2653       H  0.99193737  0.86755113  0.78759821     0.17400
O2654       O  0.70693268  0.90139257  0.82732191    -0.59500
H2655       H  0.97386210  0.77539335  0.86222119     0.17400
O2656       O  0.92740422  0.74167426  0.82242574    -0.59600
H2657       H  0.90779131  0.73684524  0.83679935     0.44400
H2658       H  0.69296246  0.91584641  0.83247652     0.44300
C2659       C  0.84103803  0.69913156  0.79592750    -0.04700
C2660       C  0.81555190  0.70102103  0.81492974    -0.32200
C2661       C  0.80918334  0.01541412  0.83954139     0.37100
C2662       C  0.82709763  0.99246220  0.84509436    -0.05100
C2663       C  0.84884558  0.65340373  0.82475035    -0.32100
C2664       C  0.85581323  0.67322299  0.80014108     0.37000
H2665       H  0.80380697  0.72068061  0.81177276     0.17400
O2666       O  0.78659194  0.02090419  0.85833044    -0.59500
H2667       H  0.86109585  0.63413710  0.82803471     0.17400
O2668       O  0.87909245  0.66913874  0.78115619    -0.59600
H2669       H  0.90677241  0.68894335  0.78565004     0.44400
H2670       H  0.80541375  0.04524906  0.86803533     0.44300
C2671       C  0.85245785  0.81904733  0.79503895    -0.04700
C2672       C  0.81321143  0.79658016  0.80397304    -0.32200
C2673       C  0.80142460  0.80494947  0.82842061     0.37100
C2674       C  0.82932623  0.83644327  0.84436280    -0.05100
C2675       C  0.86790644  0.86063364  0.83419483    -0.32100
C2676       C  0.87955576  0.85196500  0.80986145     0.37000
H2677       H  0.79234811  0.77067425  0.79289884     0.17400
O2678       O  0.76295638  0.78119526  0.83685665    -0.59500
H2679       H  0.88961145  0.88590039  0.84537660     0.17400
O2680       O  0.91816265  0.87450689  0.80126650    -0.59600
H2681       H  0.93431769  0.87095711  0.81500747     0.44400
H2682       H  0.74788590  0.79249291  0.82826062     0.44300
C2683       C  0.67148154  0.83116854  0.68819196    -0.04700
C2684       C  0.66243376  0.85815967  0.70053081    -0.32200
C2685       C  0.97747078  0.84991520  0.72561038     0.37100
C2686       C  0.96749667  0.81414876  0.73877487    -0.05100
C2687       C  0.97929618  0.78866853  0.72770967    -0.32100
C2688       C  0.99716776  0.79646676  0.70238578     0.37000
H2689       H  0.66894012  0.88561578  0.69060510     0.17400
O2690       O  0.96559776  0.87498832  0.73589773    -0.59500
H2691       H  0.97127723  0.76078286  0.73762995     0.17400
O2692       O  0.00588230  0.76936188  0.69150240    -0.59600
H2693       H  0.98137265  0.74986309  0.68230526     0.44400
H2694       H  0.65652129  0.89755594  0.74341389     0.44300
C2695       C  0.85138871  0.70252343  0.73262298    -0.04700
C2696       C  0.87861910  0.70163924  0.71471613    -0.32200
C2697       C  0.86645876  0.68146278  0.69070756     0.37100
C2698       C  0.82586979  0.99422698  0.68422111    -0.05100
C2699       C  0.79812992  0.99303748  0.70301107    -0.32100
C2700       C  0.81074123  0.68046463  0.72716864     0.37000
H2701       H  0.90995998  0.71873901  0.71863846     0.17400
O2702       O  0.89479974  0.68352506  0.67328586    -0.59500
H2703       H  0.76667107  0.97595059  0.69905924     0.17400
O2704       O  0.78348331  0.67968521  0.74509141    -0.59600
H2705       H  0.76873172  0.02382672  0.73552378     0.44400
H2706       H  0.90198648  0.66401303  0.68016196     0.44300
C2707       C  0.83191325  0.83611286  0.68332878    -0.04700
C2708       C  0.85876755  0.86514522  0.70101123    -0.32200
C2709       C  0.86902634  0.85415018  0.72501902     0.37100
C2710       C  0.85263629  0.81380546  0.73146736    -0.05100
C2711       C  0.82507769  0.78504343  0.71431576    -0.32100
C2712       C  0.81456722  0.79570799  0.69051107     0.37000
H2713       H  0.87179911  0.89648049  0.69630768     0.17400
O2714       O  0.89670258  0.88284146  0.74117313    -0.59500
H2715       H  0.81324995  0.75387809  0.71868598     0.17400
O2716       O  0.78879736  0.76625317  0.67386870    -0.59600
H2717       H  0.76205650  0.75710391  0.68159120     0.44400
H2718       H  0.88146658  0.89088496  0.75301030     0.44300
loop_ 
_geom_bond_atom_site_label_1 
_geom_bond_atom_site_label_2 
_geom_bond_distance 
_geom_bond_site_symmetry_2 
_ccdc_geom_bond_type 
Zn1           O5   1.964       .  S
Zn1           O6   1.988       .  S
Zn1          O10   2.014       .  S
Zn1          O17   2.010       .  S
Zn2           O5   1.954       .  S
Zn2           O7   2.016       .  S
Zn2           O9   1.991       .  S
Zn2          O13   1.990       .  S
Zn3           O5   1.957       .  S
Zn3           O8   2.081       .  S
Zn3          O11   2.087       .  S
Zn3          O14   2.088       .  S
Zn4           O5   1.950       .  S
Zn4          O12   1.998       .  S
Zn4          O15   1.987       .  S
Zn4          O16   1.968       .  S
O6           C18   1.271       .  A
O7           C19   1.273       .  A
O8           C20   1.283       .  A
O9           C18   1.269       .  A
O10          C20   1.273       .  A
O11          C19   1.283       .  A
O12          C21   1.270       .  A
O13          C22   1.270       .  A
O14          C21   1.283       .  A
O15          C22   1.268       .  A
O16          C23   1.267       .  A
O17          C23   1.270       .  A
C18         C267   1.481       .  S
C19         C158   1.478       .  S
C20         C157   1.474       .  S
C21         C153   1.473       .  S
C22         C291   1.478       .  S
C23         C282   1.479       .  S
C24          H25   1.113       .  S
C24          C30   1.528       .  S
C24          C29   1.526       .  S
C24          C28   1.527       .  S
C26          H27   1.112       .  S
C26          C32   1.527       .  S
C26          C31   1.528       .  S
C26          C33   1.534       .  S
C28          C31   1.369       .  D
C28         C270   1.462       .  S
C29          C32   1.367       .  D
C29         C294   1.468       .  S
C30          C33   1.367       .  D
C30         C279   1.469       .  S
C31         C231   1.475       .  S
C32         C255   1.465       .  S
C33         C243   1.467       .  S
Zn34         O38   1.955       .  S
Zn34         O39   1.989       .  S
Zn34         O43   1.962       .  S
Zn34         O50   2.010       .  S
Zn35         O38   1.954       .  S
Zn35         O40   1.989       .  S
Zn35         O42   1.979       .  S
Zn35         O46   2.005       .  S
Zn36         O38   1.964       .  S
Zn36         O41   2.002       .  S
Zn36         O44   1.997       .  S
Zn36         O47   2.034       .  S
Zn37         O38   1.948       .  S
Zn37         O45   2.090       .  S
Zn37         O48   2.089       .  S
Zn37         O49   2.096       .  S
O39          C51   1.267       .  A
O40          C52   1.268       .  A
O41          C53   1.270       .  A
O42          C51   1.269       .  A
O43          C53   1.267       .  A
O44          C52   1.271       .  A
O45          C54   1.286       .  A
O46          C55   1.272       .  A
O47          C54   1.277       .  A
O48          C55   1.285       .  A
O49          C56   1.285       .  A
O50          C56   1.272       .  A
C51         C234   1.470       .  S
C52         C258   1.483       .  S
C53         C246   1.474       .  S
C54         C134   1.490       .  S
C55         C133   1.483       .  S
C56         C135   1.487       .  S
Zn57         O61   1.965       .  S
Zn57         O62   1.998       .  S
Zn57         O66   1.986       .  S
Zn57         O73   2.019       .  S
Zn58         O61   1.959       .  S
Zn58         O63   1.987       .  S
Zn58         O65   1.977       .  S
Zn58         O69   2.017       .  S
Zn59         O61   1.960       .  S
Zn59         O64   1.997       .  S
Zn59         O67   1.969       .  S
Zn59         O70   2.009       .  S
Zn60         O61   1.950       .  S
Zn60         O68   2.094       .  S
Zn60         O71   2.096       .  S
Zn60         O72   2.088       .  S
O62          C74   1.270       .  A
O63          C75   1.269       .  A
O64          C76   1.269       .  A
O65          C74   1.268       .  A
O66          C76   1.269       .  A
O67          C75   1.267       .  A
O68          C77   1.286       .  A
O69          C78   1.273       .  A
O70          C77   1.272       .  A
O71          C78   1.285       .  A
O72          C79   1.286       .  A
O73          C79   1.274       .  A
C74         C210   1.474       .  S
C75         C222   1.467       .  S
C76         C195   1.479       .  S
C77         C156   1.485       .  S
C78         C154   1.489       .  S
C79         C155   1.486       .  S
C80          H81   1.113       .  S
C80          C86   1.526       .  S
C80          C85   1.524       .  S
C80          C84   1.527       .  S
C82          H83   1.113       .  S
C82          C88   1.526       .  S
C82          C87   1.526       .  S
C82          C89   1.524       .  S
C84          C87   1.368       .  D
C84         C207   1.464       .  S
C85          C88   1.366       .  D
C85         C198   1.465       .  S
C86          C89   1.367       .  D
C86         C219   1.463       .  S
C87         C159   1.467       .  S
C88         C171   1.463       .  S
C89         C183   1.464       .  S
Zn90         O94   1.909       .  S
Zn90         O95   2.053       .  S
Zn90         O99   2.035       .  S
Zn90        O106   2.032       .  S
Zn91         O94   1.872       .  S
Zn91         O96   1.958       .  S
Zn91         O98   1.959       .  S
Zn91        O102   1.955       .  S
Zn92         O94   1.908       .  S
Zn92         O97   2.036       .  S
Zn92        O100   2.051       .  S
Zn92        O103   2.050       .  S
Zn93         O94   1.908       .  S
Zn93        O101   2.033       .  S
Zn93        O104   2.034       .  S
Zn93        O105   2.029       .  S
O95         C107   1.277       .  A
O96         C108   1.263       .  A
O97         C109   1.280       .  A
O98         C107   1.262       .  A
O99         C109   1.280       .  A
O100        C108   1.278       .  A
O101        C110   1.279       .  A
O102        C111   1.263       .  A
O103        C110   1.281       .  A
O104        C111   1.276       .  A
O105        C112   1.279       .  A
O106        C112   1.279       .  A
C107        C162   1.469       .  S
C108        C186   1.467       .  S
C109        C130   1.473       .  S
C110        C132   1.478       .  S
C111        C174   1.466       .  S
C112        C131   1.472       .  S
Zn113      O1929   1.977       .  S
Zn113       O129   2.019       .  S
Zn113      O1930   2.024   1_455  S
Zn113       O424   2.034       .  S
Zn114       O117   1.978       .  S
Zn114       O121   2.029       .  S
Zn114       O125   2.024       .  S
Zn114       O421   2.027       .  S
Zn115      O2533   1.980       .  S
Zn115       O120   2.031       .  S
Zn115       O126   2.010       .  S
Zn115      O1935   2.020   1_455  S
Zn116       O117   1.975   1_556  S
Zn116       O127   2.089       .  S
Zn116      O1332   2.077       .  S
Zn116      O1034   2.082       .  S
O117      Zn1019   1.977       .  S
O117      Zn1323   1.980       .  S
O118      Zn1019   2.024       .  S
O118        C130   1.274       .  A
O119       Zn718   2.027   1_545  S
O119        C131   1.275       .  A
O120        C132   1.274       .  A
O121        C130   1.275       .  A
O122       Zn717   2.034   1_545  S
O122        C132   1.275       .  A
O123      Zn1021   2.020       .  S
O123        C131   1.274       .  A
O124      Zn2532   2.077       .  S
O124        C133   1.283       .  A
O125        C134   1.273   1_554  A
O126        C133   1.271   1_554  A
O127        C134   1.283       .  A
O128      Zn1928   2.082       .  S
O128        C135   1.283       .  A
O129        C135   1.272   1_554  A
Zn136       O744   1.985   1_545  S
Zn136       O145   2.013       .  S
Zn136       O745   2.041   1_545  S
Zn136      O1058   2.050       .  S
Zn137       O140   1.986       .  S
Zn137       O142   2.025       .  S
Zn137       O144   2.042       .  S
Zn137      O1054   2.046       .  S
Zn138       O140   1.979       .  S
Zn138       O146   2.083       .  S
Zn138       O445   2.086       .  S
Zn138      O1357   2.081       .  S
Zn139      O2556   1.986   1_445  S
Zn139       O147   2.018       .  S
Zn139       O151   2.048       .  S
Zn139       O754   2.040   1_545  S
O140       Zn438   1.985       .  S
O140      Zn1347   1.986       .  S
O141       Zn438   2.041       .  S
O141        C153   1.276       .  A
O142        C154   1.272       .  A
O143       Zn742   2.085   1_545  S
O143        C155   1.283       .  A
O144        C153   1.276       .  A
O145        C155   1.271       .  A
O146        C154   1.283       .  A
O147        C156   1.272       .  A
O148      Zn1949   2.046   1_455  S
O148        C157   1.276       .  A
O149      Zn2554   2.081   1_445  S
O149        C156   1.283       .  A
O150       Zn441   2.040       .  S
O150        C157   1.275       .  A
O151        C158   1.276       .  A
O152      Zn1948   2.050   1_455  S
O152        C158   1.276       .  A
C159        C160   1.401       .  A
C159        C164   1.403       .  A
C160        C161   1.392       .  A
C160        H165   1.084       .  S
C161       C1974   1.406   1_455  A
C161       O1978   1.372       .  S
C162       C1067   1.406       .  A
C162       C1069   1.408       .  A
C163        C164   1.401   1_655  A
C163       C1974   1.408       .  A
C163       H1979   1.084       .  S
C164        O168   1.371       .  S
O166       C1067   1.372       .  S
O166       H1076   0.992       .  S
H167       C1069   1.084       .  S
O168        H169   0.992   1_455  S
H170       O1978   0.992       .  S
C171        C172   1.400       .  A
C171        C176   1.402       .  A
C172        C173   1.388       .  A
C172        H177   1.084       .  S
C173        C476   1.406       .  A
C173        O178   1.372       .  S
C174        C777   1.406   1_545  A
C174        C779   1.408       .  A
C175        C176   1.400       .  A
C175        C476   1.408       .  A
C175        H481   1.084       .  S
C176        O180   1.371       .  S
O178        H182   0.992       .  S
H179        C779   1.084       .  S
O180        H181   0.992       .  S
C183        C184   1.401       .  A
C183        C188   1.404       .  A
C184        C185   1.390       .  A
C184        H189   1.084       .  S
C185        C186   1.406       .  A
C185        O190   1.372       .  S
C186        C187   1.407       .  A
C187        C188   1.401       .  A
C187        H191   1.084       .  S
C188        O192   1.371       .  S
O190        H194   0.992       .  S
O192        H193   0.992       .  S
C195        C800   1.403   1_545  A
C195        C804   1.416       .  A
C196        C197   1.393       .  A
C196        C497   1.403       .  A
C196        H503   1.084       .  S
C197        C198   1.405       .  A
C197        O202   1.370       .  S
C198        C199   1.397       .  A
C199        C200   1.400       .  A
C199        H203   1.084       .  S
C200        C497   1.416       .  A
C200        O204   1.372       .  S
H201        C800   1.084       .  S
O202        H206   0.991       .  S
O204        H205   0.992       .  S
C207        C208   1.401       .  A
C207        C212   1.402       .  A
C208       C2021   1.393       .  A
C208        H213   1.083       .  S
C209        C210   1.408       .  A
C209       C1114   1.393       .  A
C209        O214   1.372       .  S
C210       C1117   1.409       .  A
C211        C212   1.400   1_655  A
C211       C2022   1.409       .  A
C211        H215   1.084       .  S
C212        O216   1.373       .  S
O214        H218   0.992       .  S
O216        H217   0.991       .  S
C219        C220   1.402       .  A
C219        C224   1.401       .  A
C220        C221   1.391       .  A
C220        H225   1.082       .  S
C221        C222   1.405       .  A
C221        O226   1.372       .  S
C222        C223   1.408       .  A
C223        C224   1.397       .  A
C223        H227   1.084       .  S
C224        O228   1.371       .  S
O226        H230   0.992       .  S
O228        H229   0.991       .  S
C231        C232   1.400       .  A
C231        C236   1.409       .  A
C232       C1139   1.402       .  A
C232        H237   1.082       .  S
C233        C234   1.414       .  A
C233       C2044   1.402   1_455  A
C233        O238   1.372       .  S
C234       C2047   1.396   1_455  A
C235        C236   1.390       .  A
C235       C1140   1.396       .  A
C235        H239   1.084       .  S
C236        O240   1.369       .  S
O238        H242   0.992       .  S
O240        H241   0.992       .  S
C243        C244   1.399       .  A
C243        C248   1.404       .  A
C244        C849   1.389       .  A
C244        H249   1.081       .  S
C245        C246   1.409       .  A
C245        C546   1.389       .  A
C245        O250   1.372       .  S
C246        C549   1.410       .  A
C247        C248   1.402   1_565  A
C247        C850   1.410       .  A
C247        H251   1.083       .  S
C248        O252   1.373       .  S
O250        H254   0.992       .  S
O252        H253   0.991       .  S
C255        C256   1.397       .  A
C255        C260   1.404       .  A
C256        C257   1.400       .  A
C256        H261   1.084       .  S
C257        C258   1.417       .  A
C257        O262   1.372       .  S
C258        C259   1.405       .  A
C259        C260   1.397       .  A
C259        H263   1.083       .  S
C260        O264   1.373       .  S
O262        H266   0.992       .  S
O264        H265   0.991       .  S
C267        C268   1.406   1_455  A
C267       C2084   1.414   1_455  A
C268       C2081   1.394       .  A
C268        H273   1.083   1_655  S
C269        C270   1.402       .  A
C269       C1174   1.394       .  A
C269        O274   1.371       .  S
C270        C271   1.398       .  A
C271        C272   1.399       .  A
C271        H275   1.083       .  S
C272       C1173   1.414       .  A
C272        O276   1.371       .  S
O274       H1184   0.991       .  S
O276        H277   0.992       .  S
H278       O2086   0.991       .  S
C279        C280   1.398       .  A
C279        C284   1.403       .  A
C280        C281   1.389       .  A
C280        H285   1.079       .  S
C281        C886   1.410   1_545  A
C281        O286   1.372       .  S
C282        C283   1.411       .  A
C282        C583   1.410       .  A
C283        C586   1.406       .  A
C283        H287   1.083       .  S
C284        C887   1.405   1_545  A
C284        O288   1.374       .  S
O286        H290   0.992   1_545  S
O288        H893   0.991       .  S
H289        O590   0.991       .  S
C291        C292   1.412       .  A
C291        C296   1.408       .  A
C292        C293   1.401       .  A
C292        H297   1.083       .  S
C293        C294   1.401       .  A
C293        O298   1.370       .  S
C294        C295   1.400       .  A
C295        C296   1.391       .  A
C295        H299   1.079       .  S
C296        O300   1.372       .  S
O298        H302   0.992       .  S
O300        H301   0.992       .  S
Zn303       O307   1.964       .  S
Zn303       O308   1.989       .  S
Zn303       O312   2.014       .  S
Zn303       O319   2.010       .  S
Zn304       O307   1.954       .  S
Zn304       O309   2.016       .  S
Zn304       O311   1.992       .  S
Zn304       O315   1.990       .  S
Zn305       O307   1.957       .  S
Zn305       O310   2.081       .  S
Zn305       O313   2.088       .  S
Zn305       O316   2.088       .  S
Zn306       O307   1.950       .  S
Zn306       O314   1.998       .  S
Zn306       O317   1.987       .  S
Zn306       O318   1.968       .  S
O308        C320   1.271       .  A
O309        C321   1.273       .  A
O310        C322   1.283       .  A
O311        C320   1.269       .  A
O312        C322   1.274       .  A
O313        C321   1.283       .  A
O314        C323   1.270       .  A
O315        C324   1.270       .  A
O316        C323   1.283       .  A
O317        C324   1.268       .  A
O318        C325   1.267       .  A
O319        C325   1.270       .  A
C320        C569   1.481       .  S
C321        C460   1.478       .  S
C322        C459   1.474       .  S
C323        C455   1.473       .  S
C324        C593   1.478       .  S
C325        C584   1.479       .  S
C326        H327   1.113       .  S
C326        C332   1.528       .  S
C326        C331   1.526       .  S
C326        C330   1.527       .  S
C328        H329   1.112       .  S
C328        C334   1.527       .  S
C328        C333   1.528       .  S
C328        C335   1.534       .  S
C330        C333   1.368       .  D
C330        C572   1.462       .  S
C331        C334   1.367       .  D
C331        C596   1.468       .  S
C332        C335   1.367       .  D
C332        C581   1.469       .  S
C333        C533   1.475       .  S
C334        C557   1.465       .  S
C335        C545   1.467       .  S
Zn336       O340   1.955       .  S
Zn336       O341   1.990       .  S
Zn336       O345   1.962       .  S
Zn336       O352   2.010       .  S
Zn337       O340   1.954       .  S
Zn337       O342   1.990       .  S
Zn337       O344   1.979       .  S
Zn337       O348   2.005       .  S
Zn338       O340   1.963       .  S
Zn338       O343   2.002       .  S
Zn338       O346   1.997       .  S
Zn338       O349   2.034       .  S
Zn339       O340   1.948       .  S
Zn339       O347   2.090       .  S
Zn339       O350   2.089       .  S
Zn339       O351   2.096       .  S
O341        C353   1.267       .  A
O342        C354   1.268       .  A
O343        C355   1.270       .  A
O344        C353   1.269       .  A
O345        C355   1.267       .  A
O346        C354   1.271       .  A
O347        C356   1.286       .  A
O348        C357   1.272       .  A
O349        C356   1.277       .  A
O350        C357   1.285       .  A
O351        C358   1.285       .  A
O352        C358   1.272       .  A
C353        C536   1.470       .  S
C354        C560   1.484       .  S
C355        C548   1.474       .  S
C356        C436   1.490       .  S
C357        C435   1.483       .  S
C358        C437   1.487       .  S
Zn359       O363   1.965       .  S
Zn359       O364   1.997       .  S
Zn359       O368   1.986       .  S
Zn359       O375   2.019       .  S
Zn360       O363   1.959       .  S
Zn360       O365   1.987       .  S
Zn360       O367   1.977       .  S
Zn360       O371   2.017       .  S
Zn361       O363   1.960       .  S
Zn361       O366   1.997       .  S
Zn361       O369   1.969       .  S
Zn361       O372   2.009       .  S
Zn362       O363   1.950       .  S
Zn362       O370   2.094       .  S
Zn362       O373   2.096       .  S
Zn362       O374   2.088       .  S
O364        C376   1.270       .  A
O365        C377   1.269       .  A
O366        C378   1.269       .  A
O367        C376   1.268       .  A
O368        C378   1.269       .  A
O369        C377   1.267       .  A
O370        C379   1.286       .  A
O371        C380   1.273       .  A
O372        C379   1.272       .  A
O373        C380   1.285       .  A
O374        C381   1.286       .  A
O375        C381   1.274       .  A
C376        C512   1.474       .  S
C377        C524   1.467       .  S
C378        C497   1.479       .  S
C379        C458   1.486       .  S
C380        C456   1.489       .  S
C381        C457   1.486       .  S
C382        H383   1.113       .  S
C382        C388   1.526       .  S
C382        C387   1.524       .  S
C382        C386   1.527       .  S
C384        H385   1.113       .  S
C384        C390   1.527       .  S
C384        C389   1.526       .  S
C384        C391   1.524       .  S
C386        C389   1.368       .  D
C386        C509   1.464       .  S
C387        C390   1.366       .  D
C387        C500   1.465       .  S
C388        C391   1.367       .  D
C388        C521   1.463       .  S
C389        C461   1.467       .  S
C390        C473   1.463       .  S
C391        C485   1.464       .  S
Zn392       O396   1.909       .  S
Zn392       O397   2.052       .  S
Zn392       O401   2.035       .  S
Zn392       O408   2.032       .  S
Zn393       O396   1.872       .  S
Zn393       O398   1.958       .  S
Zn393       O400   1.959       .  S
Zn393       O404   1.955       .  S
Zn394       O396   1.907       .  S
Zn394       O399   2.036       .  S
Zn394       O402   2.051       .  S
Zn394       O405   2.050       .  S
Zn395       O396   1.907       .  S
Zn395       O403   2.032       .  S
Zn395       O406   2.034       .  S
Zn395       O407   2.029       .  S
O397        C409   1.277       .  A
O398        C410   1.263       .  A
O399        C411   1.280       .  A
O400        C409   1.262       .  A
O401        C411   1.280       .  A
O402        C410   1.278       .  A
O403        C412   1.279       .  A
O404        C413   1.263       .  A
O405        C412   1.281       .  A
O406        C413   1.276       .  A
O407        C414   1.279       .  A
O408        C414   1.279       .  A
C409        C464   1.469       .  S
C410        C488   1.467       .  S
C411        C432   1.473       .  S
C412        C434   1.478       .  S
C413        C476   1.466       .  S
C414        C433   1.472       .  S
Zn415      O2231   1.977       .  S
Zn415      O2232   2.024   1_455  S
Zn415       O726   2.034       .  S
Zn415       O431   2.019       .  S
Zn416       O419   1.978       .  S
Zn416       O723   2.027       .  S
Zn416       O423   2.029       .  S
Zn416       O427   2.024       .  S
Zn417      O1929   1.980       .  S
Zn417       O422   2.031       .  S
Zn417      O2237   2.020   1_455  S
Zn417       O428   2.010       .  S
Zn418       O419   1.975   1_556  S
Zn418      O1634   2.077       .  S
Zn418       O429   2.089       .  S
Zn418      O1336   2.082       .  S
O419      Zn1321   1.977       .  S
O419      Zn1625   1.980       .  S
O420      Zn1321   2.024       .  S
O420        C432   1.274       .  A
O421        C433   1.275       .  A
O422        C434   1.274       .  A
O423        C432   1.275       .  A
O424        C434   1.275       .  A
O425      Zn1323   2.020       .  S
O425        C433   1.274       .  A
O426      Zn1928   2.077       .  S
O426        C435   1.283       .  A
O427        C436   1.273   1_554  A
O428        C435   1.271   1_554  A
O429        C436   1.283       .  A
O430      Zn2230   2.082       .  S
O430        C437   1.283       .  A
O431        C437   1.272   1_554  A
Zn438       O447   2.013       .  S
Zn438      O1360   2.050       .  S
Zn439       O442   1.986       .  S
Zn439       O444   2.025       .  S
Zn439       O446   2.041       .  S
Zn439      O1356   2.046       .  S
Zn440       O442   1.979       .  S
Zn440       O747   2.086       .  S
Zn440       O448   2.083       .  S
Zn440      O1659   2.081       .  S
Zn441      O1952   1.986   1_455  S
Zn441       O449   2.018       .  S
Zn441       O453   2.049       .  S
O442       Zn740   1.985       .  S
O442      Zn1649   1.986       .  S
O443       Zn740   2.041       .  S
O443        C455   1.276       .  A
O444        C456   1.272       .  A
O445        C457   1.283       .  A
O446        C455   1.276       .  A
O447        C457   1.271       .  A
O448        C456   1.283       .  A
O449        C458   1.272       .  A
O450      Zn2251   2.046   1_455  S
O450        C459   1.276       .  A
O451      Zn1950   2.081   1_455  S
O451        C458   1.283       .  A
O452       Zn743   2.040       .  S
O452        C459   1.275       .  A
O453        C460   1.276       .  A
O454      Zn2250   2.050   1_455  S
O454        C460   1.276       .  A
C461        C462   1.401       .  A
C461        C466   1.403       .  A
C462        C463   1.392       .  A
C462        H467   1.084       .  S
C463       C2276   1.406   1_455  A
C463       O2280   1.372       .  S
C464       C1369   1.406       .  A
C464       C1371   1.408       .  A
C465       C2276   1.408       .  A
C465        C466   1.401   1_655  A
C465       H2281   1.084       .  S
C466        O470   1.371       .  S
O468       C1369   1.372       .  S
O468       H1378   0.992       .  S
H469       C1371   1.084       .  S
O470        H471   0.992   1_455  S
H472       O2280   0.992       .  S
C473        C474   1.400       .  A
C473        C478   1.402       .  A
C474        C475   1.388       .  A
C474        H479   1.084       .  S
C475        C778   1.406       .  A
C475        O480   1.372       .  S
C477        C778   1.408       .  A
C477        C478   1.400       .  A
C477        H783   1.084       .  S
C478        O482   1.371       .  S
O480        H484   0.992       .  S
O482        H483   0.992       .  S
C485        C486   1.401       .  A
C485        C490   1.403       .  A
C486        C487   1.390       .  A
C486        H491   1.084       .  S
C487        C488   1.406       .  A
C487        O492   1.372       .  S
C488        C489   1.407       .  A
C489        C490   1.401       .  A
C489        H493   1.084       .  S
C490        O494   1.371       .  S
O492        H496   0.992       .  S
O494        H495   0.992       .  S
C498        C799   1.403       .  A
C498        C499   1.393       .  A
C498        H805   1.084       .  S
C499        C500   1.405       .  A
C499        O504   1.370       .  S
C500        C501   1.397       .  A
C501        C502   1.400       .  A
C501        H505   1.084       .  S
C502        C799   1.416       .  A
C502        O506   1.372       .  S
O504        H508   0.991       .  S
O506        H507   0.992       .  S
C509        C510   1.401       .  A
C509        C514   1.402       .  A
C510       C2323   1.392       .  A
C510        H515   1.083       .  S
C511       C1416   1.392       .  A
C511        C512   1.408       .  A
C511        O516   1.372       .  S
C512       C1419   1.409       .  A
C513       C2324   1.409       .  A
C513        C514   1.400   1_655  A
C513        H517   1.084       .  S
C514        O518   1.373       .  S
O516        H520   0.992       .  S
O518        H519   0.991       .  S
C521        C522   1.402       .  A
C521        C526   1.401       .  A
C522        C523   1.391       .  A
C522        H527   1.082       .  S
C523        C524   1.405       .  A
C523        O528   1.372       .  S
C524        C525   1.408       .  A
C525        C526   1.397       .  A
C525        H529   1.084       .  S
C526        O530   1.371       .  S
O528        H532   0.992       .  S
O530        H531   0.991       .  S
C533        C534   1.400       .  A
C533        C538   1.409       .  A
C534       C1441   1.402       .  A
C534        H539   1.082       .  S
C535       C2346   1.402   1_455  A
C535        C536   1.414       .  A
C535        O540   1.372       .  S
C536       C2349   1.396   1_455  A
C537       C1442   1.396       .  A
C537        C538   1.390       .  A
C537        H541   1.084       .  S
C538        O542   1.369       .  S
O540        H544   0.992       .  S
O542        H543   0.992       .  S
C545        C546   1.399       .  A
C545        C550   1.404       .  A
C546        H551   1.081       .  S
C547        C848   1.389       .  A
C547        C548   1.409       .  A
C547        O552   1.372       .  S
C548        C851   1.410       .  A
C549        C550   1.402       .  A
C549        H553   1.083       .  S
C550        O554   1.373       .  S
O552        H556   0.992       .  S
O554        H555   0.991       .  S
C557        C558   1.397       .  A
C557        C562   1.404       .  A
C558        C559   1.400       .  A
C558        H563   1.084       .  S
C559        C560   1.417       .  A
C559        O564   1.372       .  S
C560        C561   1.405       .  A
C561        C562   1.397       .  A
C561        H565   1.083       .  S
C562        O566   1.373       .  S
O564        H568   0.992       .  S
O566        H567   0.991       .  S
C569        C570   1.406   1_455  A
C569       C2386   1.415   1_455  A
C570       C2383   1.394       .  A
C570        H575   1.083   1_655  S
C571       C1476   1.394       .  A
C571        C572   1.402       .  A
C571        O576   1.371       .  S
C572        C573   1.398       .  A
C573        C574   1.399       .  A
C573        H577   1.083       .  S
C574       C1475   1.415       .  A
C574        O578   1.372       .  S
O576       H1486   0.991       .  S
O578        H579   0.992       .  S
H580       O2388   0.991       .  S
C581        C582   1.398       .  A
C581        C586   1.403       .  A
C582        C583   1.389       .  A
C582        H587   1.079       .  S
C583        O588   1.372       .  S
C584        C885   1.410       .  A
C584        C585   1.411       .  A
C585        C888   1.405       .  A
C585        H589   1.083       .  S
C586        O590   1.374       .  S
O588        H592   0.992       .  S
H591        O892   0.991       .  S
C593        C594   1.412       .  A
C593        C598   1.408       .  A
C594        C595   1.401       .  A
C594        H599   1.083       .  S
C595        C596   1.401       .  A
C595        O600   1.370       .  S
C596        C597   1.400       .  A
C597        C598   1.391       .  A
C597        H601   1.079       .  S
C598        O602   1.372       .  S
O600        H604   0.992       .  S
O602        H603   0.992       .  S
Zn605       O609   1.964       .  S
Zn605       O610   1.989       .  S
Zn605       O614   2.014       .  S
Zn605       O621   2.009       .  S
Zn606       O609   1.954       .  S
Zn606       O611   2.016       .  S
Zn606       O613   1.992       .  S
Zn606       O617   1.990       .  S
Zn607       O609   1.957       .  S
Zn607       O612   2.081       .  S
Zn607       O615   2.087       .  S
Zn607       O618   2.088       .  S
Zn608       O609   1.950       .  S
Zn608       O616   1.998       .  S
Zn608       O619   1.987       .  S
Zn608       O620   1.968       .  S
O610        C622   1.271       .  A
O611        C623   1.273       .  A
O612        C624   1.283       .  A
O613        C622   1.269       .  A
O614        C624   1.274       .  A
O615        C623   1.283       .  A
O616        C625   1.270       .  A
O617        C626   1.270       .  A
O618        C625   1.283       .  A
O619        C626   1.268       .  A
O620        C627   1.267       .  A
O621        C627   1.270       .  A
C622        C871   1.481       .  S
C623        C762   1.478       .  S
C624        C761   1.474       .  S
C625        C757   1.473       .  S
C626        C895   1.478       .  S
C627        C886   1.479       .  S
C628        H629   1.113       .  S
C628        C634   1.528       .  S
C628        C633   1.526       .  S
C628        C632   1.527       .  S
C630        H631   1.112       .  S
C630        C636   1.527       .  S
C630        C635   1.528       .  S
C630        C637   1.534       .  S
C632        C635   1.369       .  D
C632        C874   1.462       .  S
C633        C636   1.367       .  D
C633        C898   1.468       .  S
C634        C637   1.367       .  D
C634        C883   1.469       .  S
C635        C835   1.475       .  S
C636        C859   1.465       .  S
C637        C847   1.467       .  S
Zn638       O642   1.955       .  S
Zn638       O643   1.990       .  S
Zn638       O647   1.962       .  S
Zn638       O654   2.010       .  S
Zn639       O642   1.954       .  S
Zn639       O644   1.989       .  S
Zn639       O646   1.979       .  S
Zn639       O650   2.005       .  S
Zn640       O642   1.964       .  S
Zn640       O645   2.002       .  S
Zn640       O648   1.997       .  S
Zn640       O651   2.034       .  S
Zn641       O642   1.948       .  S
Zn641       O649   2.090       .  S
Zn641       O652   2.089       .  S
Zn641       O653   2.097       .  S
O643        C655   1.267       .  A
O644        C656   1.268       .  A
O645        C657   1.270       .  A
O646        C655   1.269       .  A
O647        C657   1.267       .  A
O648        C656   1.271       .  A
O649        C658   1.286       .  A
O650        C659   1.272       .  A
O651        C658   1.277       .  A
O652        C659   1.285       .  A
O653        C660   1.285       .  A
O654        C660   1.272       .  A
C655        C838   1.470       .  S
C656        C862   1.483       .  S
C657        C850   1.474       .  S
C658        C738   1.490       .  S
C659        C737   1.483       .  S
C660        C739   1.487       .  S
Zn661       O665   1.965       .  S
Zn661       O666   1.997       .  S
Zn661       O670   1.986       .  S
Zn661       O677   2.019       .  S
Zn662       O665   1.959       .  S
Zn662       O667   1.987       .  S
Zn662       O669   1.977       .  S
Zn662       O673   2.017       .  S
Zn663       O665   1.960       .  S
Zn663       O668   1.997       .  S
Zn663       O671   1.969       .  S
Zn663       O674   2.009       .  S
Zn664       O665   1.950       .  S
Zn664       O672   2.094       .  S
Zn664       O675   2.096       .  S
Zn664       O676   2.088       .  S
O666        C678   1.270       .  A
O667        C679   1.269       .  A
O668        C680   1.269       .  A
O669        C678   1.268       .  A
O670        C680   1.269       .  A
O671        C679   1.267       .  A
O672        C681   1.286       .  A
O673        C682   1.273       .  A
O674        C681   1.272       .  A
O675        C682   1.285       .  A
O676        C683   1.286       .  A
O677        C683   1.274       .  A
C678        C814   1.474       .  S
C679        C826   1.467       .  S
C680        C799   1.479       .  S
C681        C760   1.486       .  S
C682        C758   1.489       .  S
C683        C759   1.486       .  S
C684        H685   1.113       .  S
C684        C690   1.526       .  S
C684        C689   1.524       .  S
C684        C688   1.527       .  S
C686        H687   1.113       .  S
C686        C692   1.526       .  S
C686        C691   1.526       .  S
C686        C693   1.524       .  S
C688        C691   1.368       .  D
C688        C811   1.464       .  S
C689        C692   1.366       .  D
C689        C802   1.465       .  S
C690        C693   1.367       .  D
C690        C823   1.463       .  S
C691        C763   1.467       .  S
C692        C775   1.463       .  S
C693        C787   1.464       .  S
Zn694       O698   1.909       .  S
Zn694       O699   2.053       .  S
Zn694       O703   2.036       .  S
Zn694       O710   2.033       .  S
Zn695       O698   1.872       .  S
Zn695       O700   1.958       .  S
Zn695       O702   1.959       .  S
Zn695       O706   1.955       .  S
Zn696       O698   1.907       .  S
Zn696       O701   2.036       .  S
Zn696       O704   2.051       .  S
Zn696       O707   2.050       .  S
Zn697       O698   1.908       .  S
Zn697       O705   2.032       .  S
Zn697       O708   2.034       .  S
Zn697       O709   2.029       .  S
O699        C711   1.277       .  A
O700        C712   1.263       .  A
O701        C713   1.280       .  A
O702        C711   1.262       .  A
O703        C713   1.280       .  A
O704        C712   1.278       .  A
O705        C714   1.279       .  A
O706        C715   1.263       .  A
O707        C714   1.281       .  A
O708        C715   1.276       .  A
O709        C716   1.279       .  A
O710        C716   1.279       .  A
C711        C766   1.469       .  S
C712        C790   1.467       .  S
C713        C734   1.473       .  S
C714        C736   1.478       .  S
C715        C778   1.466       .  S
C716        C735   1.472       .  S
Zn717      O2533   1.977   1_565  S
Zn717      O2534   2.024   1_455  S
Zn717       O733   2.020       .  S
Zn718       O721   1.978   1_565  S
Zn718       O725   2.029       .  S
Zn718       O729   2.024       .  S
Zn719      O2231   1.980       .  S
Zn719       O724   2.031       .  S
Zn719      O2539   2.020   1_455  S
Zn719       O730   2.010       .  S
Zn720       O721   1.975   1_556  S
Zn720      O1030   2.077       .  S
Zn720       O731   2.089   1_545  S
Zn720      O1638   2.082   1_545  S
O721      Zn1623   1.977   1_545  S
O721      Zn1021   1.980       .  S
O722      Zn1623   2.024       .  S
O722        C734   1.275       .  A
O723        C735   1.275       .  A
O724        C736   1.274       .  A
O725        C734   1.275       .  A
O726        C736   1.275       .  A
O727      Zn1625   2.020       .  S
O727        C735   1.274       .  A
O728      Zn2230   2.077       .  S
O728        C737   1.283       .  A
O729        C738   1.273   1_554  A
O730        C737   1.271   1_554  A
O731        C738   1.283       .  A
O732      Zn2532   2.082   1_565  S
O732        C739   1.283       .  A
O733        C739   1.272   1_554  A
Zn740       O749   2.013       .  S
Zn740      O1662   2.050       .  S
Zn741       O744   1.986       .  S
Zn741       O746   2.025       .  S
Zn741       O748   2.042       .  S
Zn741      O1658   2.046       .  S
Zn742       O744   1.979       .  S
Zn742       O750   2.083       .  S
Zn742      O1055   2.081   1_565  S
Zn743      O2254   1.986   1_455  S
Zn743       O751   2.018       .  S
Zn743       O755   2.048       .  S
O744      Zn1045   1.986   1_565  S
O745        C757   1.276       .  A
O746        C758   1.272       .  A
O747        C759   1.283       .  A
O748        C757   1.276       .  A
O749        C759   1.271       .  A
O750        C758   1.283       .  A
O751        C760   1.272       .  A
O752      Zn2553   2.046   1_455  S
O752        C761   1.276       .  A
O753      Zn2252   2.081   1_455  S
O753        C760   1.283       .  A
O754        C761   1.275       .  A
O755        C762   1.276       .  A
O756      Zn2552   2.050   1_455  S
O756        C762   1.276       .  A
C763        C764   1.401       .  A
C763        C768   1.403       .  A
C764        C765   1.392       .  A
C764        H769   1.084       .  S
C765       C2578   1.406   1_455  A
C765       O2582   1.372       .  S
C766       C1671   1.406       .  A
C766       C1673   1.408       .  A
C767       C2578   1.408       .  A
C767        C768   1.401   1_655  A
C767       H2583   1.084       .  S
C768        O772   1.371       .  S
O770       C1671   1.372       .  S
O770       H1680   0.992       .  S
H771       C1673   1.084       .  S
O772        H773   0.992   1_455  S
H774       O2582   0.992       .  S
C775        C776   1.400       .  A
C775        C780   1.402       .  A
C776        C777   1.388       .  A
C776        H781   1.084       .  S
C777        O782   1.372       .  S
C779        C780   1.400   1_545  A
C780        O784   1.371       .  S
O782        H786   0.992       .  S
O784        H785   0.992   1_565  S
C787        C788   1.401       .  A
C787        C792   1.403       .  A
C788        C789   1.390       .  A
C788        H793   1.084       .  S
C789        C790   1.406       .  A
C789        O794   1.372       .  S
C790        C791   1.407       .  A
C791        C792   1.401       .  A
C791        H795   1.084       .  S
C792        O796   1.371       .  S
O794        H798   0.992       .  S
O796        H797   0.992       .  S
C800        C801   1.393       .  A
C801        C802   1.405       .  A
C801        O806   1.370       .  S
C802        C803   1.397       .  A
C803        C804   1.400   1_565  A
C803        H807   1.084       .  S
C804        O808   1.372       .  S
O806        H810   0.991       .  S
O808        H809   0.992       .  S
C811        C812   1.401       .  A
C811        C816   1.402       .  A
C812       C2625   1.392       .  A
C812        H817   1.083       .  S
C813       C1718   1.392       .  A
C813        C814   1.408       .  A
C813        O818   1.372       .  S
C814       C1721   1.409       .  A
C815       C2626   1.409       .  A
C815        C816   1.400   1_655  A
C815        H819   1.084       .  S
C816        O820   1.373       .  S
O818        H822   0.992       .  S
O820        H821   0.991       .  S
C823        C824   1.402       .  A
C823        C828   1.401       .  A
C824        C825   1.391       .  A
C824        H829   1.082       .  S
C825        C826   1.405       .  A
C825        O830   1.372       .  S
C826        C827   1.408       .  A
C827        C828   1.397       .  A
C827        H831   1.084       .  S
C828        O832   1.371       .  S
O830        H834   0.992       .  S
O832        H833   0.991       .  S
C835        C836   1.400       .  A
C835        C840   1.409       .  A
C836       C1743   1.402       .  A
C836        H841   1.082       .  S
C837       C2648   1.402   1_455  A
C837        C838   1.414       .  A
C837        O842   1.372       .  S
C838       C2651   1.396   1_455  A
C839       C1744   1.396       .  A
C839        C840   1.390       .  A
C839        H843   1.084       .  S
C840        O844   1.369       .  S
O842        H846   0.992       .  S
O844        H845   0.992       .  S
C847        C848   1.399       .  A
C847        C852   1.404       .  A
C848        H853   1.081       .  S
C849        C850   1.409   1_545  A
C849        O854   1.372       .  S
C851        C852   1.402       .  A
C851        H855   1.083       .  S
C852        O856   1.373       .  S
O854        H858   0.992       .  S
O856        H857   0.991       .  S
C859        C860   1.397       .  A
C859        C864   1.404       .  A
C860        C861   1.400       .  A
C860        H865   1.084       .  S
C861        C862   1.417       .  A
C861        O866   1.372       .  S
C862        C863   1.405       .  A
C863        C864   1.397       .  A
C863        H867   1.083       .  S
C864        O868   1.373       .  S
O866        H870   0.992       .  S
O868        H869   0.991       .  S
C871        C872   1.406   1_455  A
C871       C2688   1.415   1_455  A
C872       C2685   1.394       .  A
C872        H877   1.083   1_655  S
C873       C1778   1.394       .  A
C873        C874   1.402       .  A
C873        O878   1.371       .  S
C874        C875   1.398       .  A
C875        C876   1.399       .  A
C875        H879   1.083       .  S
C876       C1777   1.415       .  A
C876        O880   1.371       .  S
O878       H1788   0.991       .  S
O880        H881   0.992       .  S
H882       O2690   0.991       .  S
C883        C884   1.398       .  A
C883        C888   1.403       .  A
C884        C885   1.389       .  A
C884        H889   1.079       .  S
C885        O890   1.372       .  S
C886        C887   1.411       .  A
C887        H891   1.083       .  S
C888        O892   1.374       .  S
O890        H894   0.992       .  S
C895        C896   1.412       .  A
C895        C900   1.408       .  A
C896        C897   1.401       .  A
C896        H901   1.083       .  S
C897        C898   1.401       .  A
C897        O902   1.370       .  S
C898        C899   1.400       .  A
C899        C900   1.391       .  A
C899        H903   1.079       .  S
C900        O904   1.372       .  S
O902        H906   0.992       .  S
O904        H905   0.992       .  S
Zn907       O911   1.964       .  S
Zn907       O912   1.988       .  S
Zn907       O916   2.014       .  S
Zn907       O923   2.010       .  S
Zn908       O911   1.954       .  S
Zn908       O913   2.016       .  S
Zn908       O915   1.991       .  S
Zn908       O919   1.990       .  S
Zn909       O911   1.957       .  S
Zn909       O914   2.081       .  S
Zn909       O917   2.087       .  S
Zn909       O920   2.088       .  S
Zn910       O911   1.950       .  S
Zn910       O918   1.998       .  S
Zn910       O921   1.987       .  S
Zn910       O922   1.968       .  S
O912        C924   1.271       .  A
O913        C925   1.273       .  A
O914        C926   1.283       .  A
O915        C924   1.269       .  A
O916        C926   1.273       .  A
O917        C925   1.283       .  A
O918        C927   1.270       .  A
O919        C928   1.270       .  A
O920        C927   1.283       .  A
O921        C928   1.268       .  A
O922        C929   1.267       .  A
O923        C929   1.270       .  A
C924       C1173   1.481       .  S
C925       C1064   1.478       .  S
C926       C1063   1.474       .  S
C927       C1059   1.473       .  S
C928       C1197   1.478       .  S
C929       C1188   1.479       .  S
C930        H931   1.113       .  S
C930        C936   1.528       .  S
C930        C935   1.526       .  S
C930        C934   1.527       .  S
C932        H933   1.112       .  S
C932        C938   1.527       .  S
C932        C937   1.528       .  S
C932        C939   1.534       .  S
C934        C937   1.369       .  D
C934       C1176   1.462       .  S
C935        C938   1.367       .  D
C935       C1200   1.468       .  S
C936        C939   1.367       .  D
C936       C1185   1.469       .  S
C937       C1137   1.475       .  S
C938       C1161   1.465       .  S
C939       C1149   1.467       .  S
Zn940       O944   1.955       .  S
Zn940       O945   1.989       .  S
Zn940       O949   1.962       .  S
Zn940       O956   2.010       .  S
Zn941       O944   1.954       .  S
Zn941       O946   1.989       .  S
Zn941       O948   1.979       .  S
Zn941       O952   2.005       .  S
Zn942       O944   1.964       .  S
Zn942       O947   2.002       .  S
Zn942       O950   1.997       .  S
Zn942       O953   2.034       .  S
Zn943       O944   1.948       .  S
Zn943       O951   2.090       .  S
Zn943       O954   2.089       .  S
Zn943       O955   2.096       .  S
O945        C957   1.267       .  A
O946        C958   1.268       .  A
O947        C959   1.270       .  A
O948        C957   1.269       .  A
O949        C959   1.267       .  A
O950        C958   1.271       .  A
O951        C960   1.286       .  A
O952        C961   1.272       .  A
O953        C960   1.277       .  A
O954        C961   1.285       .  A
O955        C962   1.285       .  A
O956        C962   1.272       .  A
C957       C1140   1.470       .  S
C958       C1164   1.483       .  S
C959       C1152   1.474       .  S
C960       C1040   1.490       .  S
C961       C1039   1.483       .  S
C962       C1041   1.487       .  S
Zn963       O967   1.965       .  S
Zn963       O968   1.998       .  S
Zn963       O972   1.986       .  S
Zn963       O979   2.019       .  S
Zn964       O967   1.959       .  S
Zn964       O969   1.987       .  S
Zn964       O971   1.977       .  S
Zn964       O975   2.017       .  S
Zn965       O967   1.960       .  S
Zn965       O970   1.997       .  S
Zn965       O973   1.969       .  S
Zn965       O976   2.009       .  S
Zn966       O967   1.950       .  S
Zn966       O974   2.094       .  S
Zn966       O977   2.096       .  S
Zn966       O978   2.088       .  S
O968        C980   1.270       .  A
O969        C981   1.269       .  A
O970        C982   1.269       .  A
O971        C980   1.268       .  A
O972        C982   1.269       .  A
O973        C981   1.267       .  A
O974        C983   1.286       .  A
O975        C984   1.273       .  A
O976        C983   1.272       .  A
O977        C984   1.285       .  A
O978        C985   1.286       .  A
O979        C985   1.274       .  A
C980       C1116   1.474       .  S
C981       C1128   1.467       .  S
C982       C1101   1.479       .  S
C983       C1062   1.485       .  S
C984       C1060   1.489       .  S
C985       C1061   1.486       .  S
C986        H987   1.113       .  S
C986        C992   1.526       .  S
C986        C991   1.524       .  S
C986        C990   1.527       .  S
C988        H989   1.113       .  S
C988        C994   1.526       .  S
C988        C993   1.526       .  S
C988        C995   1.524       .  S
C990        C993   1.368       .  D
C990       C1113   1.464       .  S
C991        C994   1.366       .  D
C991       C1104   1.465       .  S
C992        C995   1.367       .  D
C992       C1125   1.463       .  S
C993       C1065   1.467       .  S
C994       C1077   1.463       .  S
C995       C1089   1.464       .  S
Zn996      O1000   1.909       .  S
Zn996      O1001   2.053       .  S
Zn996      O1005   2.035       .  S
Zn996      O1012   2.032       .  S
Zn997      O1000   1.872       .  S
Zn997      O1002   1.958       .  S
Zn997      O1004   1.959       .  S
Zn997      O1008   1.955       .  S
Zn998      O1000   1.908       .  S
Zn998      O1003   2.036       .  S
Zn998      O1006   2.051       .  S
Zn998      O1009   2.050       .  S
Zn999      O1000   1.908       .  S
Zn999      O1007   2.033       .  S
Zn999      O1010   2.034       .  S
Zn999      O1011   2.029       .  S
O1001      C1013   1.277       .  A
O1002      C1014   1.263       .  A
O1003      C1015   1.280       .  A
O1004      C1013   1.262       .  A
O1005      C1015   1.280       .  A
O1006      C1014   1.278       .  A
O1007      C1016   1.279       .  A
O1008      C1017   1.263       .  A
O1009      C1016   1.281       .  A
O1010      C1017   1.276       .  A
O1011      C1018   1.279       .  A
O1012      C1018   1.279       .  A
C1013      C1068   1.469       .  S
C1014      C1092   1.467       .  S
C1015      C1036   1.473       .  S
C1016      C1038   1.478       .  S
C1017      C1080   1.466       .  S
C1018      C1037   1.472       .  S
Zn1019     O1330   2.034       .  S
Zn1019     O1035   2.019       .  S
Zn1020     O1023   1.978       .  S
Zn1020     O1327   2.027       .  S
Zn1020     O1027   2.029       .  S
Zn1020     O1031   2.024       .  S
Zn1021     O1026   2.031       .  S
Zn1021     O1032   2.010       .  S
Zn1022     O1023   1.975   1_556  S
Zn1022     O2238   2.077       .  S
Zn1022     O1033   2.089       .  S
Zn1022     O1940   2.082       .  S
O1023     Zn1925   1.977       .  S
O1023     Zn2229   1.980       .  S
O1024     Zn1925   2.024       .  S
O1024      C1036   1.274       .  A
O1025     Zn1624   2.027   1_545  S
O1025      C1037   1.275       .  A
O1026      C1038   1.274       .  A
O1027      C1036   1.275       .  A
O1028     Zn1623   2.034   1_545  S
O1028      C1038   1.275       .  A
O1029     Zn1927   2.020       .  S
O1029      C1037   1.274       .  A
O1030      C1039   1.283       .  A
O1031      C1040   1.273   1_554  A
O1032      C1039   1.271   1_554  A
O1033      C1040   1.283       .  A
O1034      C1041   1.283       .  A
O1035      C1041   1.272   1_554  A
Zn1042     O1650   1.985   1_545  S
Zn1042     O1651   2.041   1_545  S
Zn1042     O1051   2.013       .  S
Zn1042     O1964   2.050       .  S
Zn1043     O1046   1.986       .  S
Zn1043     O1048   2.025       .  S
Zn1043     O1050   2.042       .  S
Zn1043     O1960   2.046       .  S
Zn1044     O1046   1.979       .  S
Zn1044     O1351   2.086       .  S
Zn1044     O1052   2.083       .  S
Zn1044     O2263   2.081       .  S
Zn1045     O1053   2.018       .  S
Zn1045     O1660   2.040   1_545  S
Zn1045     O1057   2.048       .  S
O1046     Zn1344   1.985       .  S
O1046     Zn2253   1.986       .  S
O1047     Zn1344   2.041       .  S
O1047      C1059   1.276       .  A
O1048      C1060   1.272       .  A
O1049     Zn1648   2.085   1_545  S
O1049      C1061   1.283       .  A
O1050      C1059   1.276       .  A
O1051      C1061   1.271       .  A
O1052      C1060   1.283       .  A
O1053      C1062   1.272       .  A
O1054      C1063   1.276       .  A
O1055      C1062   1.283       .  A
O1056     Zn1347   2.040       .  S
O1056      C1063   1.275       .  A
O1057      C1064   1.276       .  A
O1058      C1064   1.276       .  A
C1065      C1066   1.401       .  A
C1065      C1070   1.403       .  A
C1066      C1067   1.392       .  A
C1066      H1071   1.084       .  S
C1068      C1973   1.406       .  A
C1068      C1975   1.408       .  A
C1069      C1070   1.401       .  A
C1070      O1074   1.371       .  S
O1072      C1973   1.372       .  S
O1072      H1982   0.992       .  S
H1073      C1975   1.084       .  S
O1074      H1075   0.992       .  S
C1077      C1078   1.400       .  A
C1077      C1082   1.402       .  A
C1078      C1079   1.388       .  A
C1078      H1083   1.084       .  S
C1079      C1382   1.406       .  A
C1079      O1084   1.372       .  S
C1080      C1683   1.406   1_545  A
C1080      C1685   1.408       .  A
C1081      C1382   1.408       .  A
C1081      C1082   1.400       .  A
C1081      H1387   1.084       .  S
C1082      O1086   1.371       .  S
O1084      H1088   0.992       .  S
H1085      C1685   1.084       .  S
O1086      H1087   0.992       .  S
C1089      C1090   1.401       .  A
C1089      C1094   1.404       .  A
C1090      C1091   1.390       .  A
C1090      H1095   1.084       .  S
C1091      C1092   1.406       .  A
C1091      O1096   1.372       .  S
C1092      C1093   1.407       .  A
C1093      C1094   1.401       .  A
C1093      H1097   1.084       .  S
C1094      O1098   1.371       .  S
O1096      H1100   0.992       .  S
O1098      H1099   0.992       .  S
C1101      C1706   1.403   1_545  A
C1101      C1710   1.416       .  A
C1102      C1403   1.403       .  A
C1102      C1103   1.393       .  A
C1102      H1409   1.084       .  S
C1103      C1104   1.405       .  A
C1103      O1108   1.370       .  S
C1104      C1105   1.397       .  A
C1105      C1106   1.400       .  A
C1105      H1109   1.084       .  S
C1106      C1403   1.416       .  A
C1106      O1110   1.372       .  S
H1107      C1706   1.084       .  S
O1108      H1112   0.991       .  S
O1110      H1111   0.992       .  S
C1113      C1114   1.401       .  A
C1113      C1118   1.402       .  A
C1114      H1119   1.083       .  S
C1115      C2020   1.393       .  A
C1115      C1116   1.408       .  A
C1115      O1120   1.372       .  S
C1116      C2023   1.409       .  A
C1117      C1118   1.400       .  A
C1117      H1121   1.084       .  S
C1118      O1122   1.373       .  S
O1120      H1124   0.992       .  S
O1122      H1123   0.991       .  S
C1125      C1126   1.402       .  A
C1125      C1130   1.401       .  A
C1126      C1127   1.391       .  A
C1126      H1131   1.082       .  S
C1127      C1128   1.405       .  A
C1127      O1132   1.372       .  S
C1128      C1129   1.408       .  A
C1129      C1130   1.397       .  A
C1129      H1133   1.084       .  S
C1130      O1134   1.371       .  S
O1132      H1136   0.992       .  S
O1134      H1135   0.991       .  S
C1137      C1138   1.400       .  A
C1137      C1142   1.409       .  A
C1138      C2045   1.402       .  A
C1138      H1143   1.082       .  S
C1139      C1140   1.414       .  A
C1139      O1144   1.372       .  S
C1141      C2046   1.396       .  A
C1141      C1142   1.390       .  A
C1141      H1145   1.084       .  S
C1142      O1146   1.369       .  S
O1144      H1148   0.992       .  S
O1146      H1147   0.992       .  S
C1149      C1150   1.399       .  A
C1149      C1154   1.404       .  A
C1150      C1755   1.389       .  A
C1150      H1155   1.081       .  S
C1151      C1452   1.389       .  A
C1151      C1152   1.409       .  A
C1151      O1156   1.372       .  S
C1152      C1455   1.410       .  A
C1153      C1756   1.410       .  A
C1153      C1154   1.402   1_565  A
C1153      H1157   1.083       .  S
C1154      O1158   1.373       .  S
O1156      H1160   0.992       .  S
O1158      H1159   0.991       .  S
C1161      C1162   1.397       .  A
C1161      C1166   1.404       .  A
C1162      C1163   1.400       .  A
C1162      H1167   1.084       .  S
C1163      C1164   1.417       .  A
C1163      O1168   1.372       .  S
C1164      C1165   1.405       .  A
C1165      C1166   1.397       .  A
C1165      H1169   1.083       .  S
C1166      O1170   1.373       .  S
O1168      H1172   0.992       .  S
O1170      H1171   0.991       .  S
C1173      C1174   1.406       .  A
C1174      H1179   1.083       .  S
C1175      C2080   1.394       .  A
C1175      C1176   1.402       .  A
C1175      O1180   1.371       .  S
C1176      C1177   1.398       .  A
C1177      C1178   1.399       .  A
C1177      H1181   1.083       .  S
C1178      C2079   1.414       .  A
C1178      O1182   1.371       .  S
O1180      H2090   0.991       .  S
O1182      H1183   0.992       .  S
C1185      C1186   1.398       .  A
C1185      C1190   1.403       .  A
C1186      C1187   1.389       .  A
C1186      H1191   1.079       .  S
C1187      C1792   1.410   1_545  A
C1187      O1192   1.372       .  S
C1188      C1489   1.410       .  A
C1188      C1189   1.411       .  A
C1189      C1492   1.406       .  A
C1189      H1193   1.083       .  S
C1190      C1793   1.405   1_545  A
C1190      O1194   1.374       .  S
O1192      H1196   0.992   1_545  S
O1194      H1799   0.991       .  S
H1195      O1496   0.991       .  S
C1197      C1198   1.412       .  A
C1197      C1202   1.408       .  A
C1198      C1199   1.401       .  A
C1198      H1203   1.083       .  S
C1199      C1200   1.401       .  A
C1199      O1204   1.370       .  S
C1200      C1201   1.400       .  A
C1201      C1202   1.391       .  A
C1201      H1205   1.079       .  S
C1202      O1206   1.372       .  S
O1204      H1208   0.992       .  S
O1206      H1207   0.992       .  S
Zn1209     O1213   1.964       .  S
Zn1209     O1214   1.989       .  S
Zn1209     O1218   2.014       .  S
Zn1209     O1225   2.010       .  S
Zn1210     O1213   1.954       .  S
Zn1210     O1215   2.016       .  S
Zn1210     O1217   1.992       .  S
Zn1210     O1221   1.990       .  S
Zn1211     O1213   1.957       .  S
Zn1211     O1216   2.081       .  S
Zn1211     O1219   2.088       .  S
Zn1211     O1222   2.088       .  S
Zn1212     O1213   1.950       .  S
Zn1212     O1220   1.998       .  S
Zn1212     O1223   1.987       .  S
Zn1212     O1224   1.968       .  S
O1214      C1226   1.271       .  A
O1215      C1227   1.273       .  A
O1216      C1228   1.283       .  A
O1217      C1226   1.269       .  A
O1218      C1228   1.274       .  A
O1219      C1227   1.283       .  A
O1220      C1229   1.270       .  A
O1221      C1230   1.270       .  A
O1222      C1229   1.283       .  A
O1223      C1230   1.268       .  A
O1224      C1231   1.267       .  A
O1225      C1231   1.270       .  A
C1226      C1475   1.481       .  S
C1227      C1366   1.478       .  S
C1228      C1365   1.474       .  S
C1229      C1361   1.473       .  S
C1230      C1499   1.478       .  S
C1231      C1490   1.479       .  S
C1232      H1233   1.113       .  S
C1232      C1238   1.528       .  S
C1232      C1237   1.526       .  S
C1232      C1236   1.527       .  S
C1234      H1235   1.112       .  S
C1234      C1240   1.527       .  S
C1234      C1239   1.528       .  S
C1234      C1241   1.534       .  S
C1236      C1239   1.368       .  D
C1236      C1478   1.462       .  S
C1237      C1240   1.367       .  D
C1237      C1502   1.468       .  S
C1238      C1241   1.367       .  D
C1238      C1487   1.469       .  S
C1239      C1439   1.475       .  S
C1240      C1463   1.465       .  S
C1241      C1451   1.467       .  S
Zn1242     O1246   1.955       .  S
Zn1242     O1247   1.990       .  S
Zn1242     O1251   1.962       .  S
Zn1242     O1258   2.010       .  S
Zn1243     O1246   1.954       .  S
Zn1243     O1248   1.990       .  S
Zn1243     O1250   1.979       .  S
Zn1243     O1254   2.005       .  S
Zn1244     O1246   1.963       .  S
Zn1244     O1249   2.002       .  S
Zn1244     O1252   1.997       .  S
Zn1244     O1255   2.034       .  S
Zn1245     O1246   1.948       .  S
Zn1245     O1253   2.090       .  S
Zn1245     O1256   2.089       .  S
Zn1245     O1257   2.096       .  S
O1247      C1259   1.267       .  A
O1248      C1260   1.268       .  A
O1249      C1261   1.270       .  A
O1250      C1259   1.269       .  A
O1251      C1261   1.267       .  A
O1252      C1260   1.271       .  A
O1253      C1262   1.286       .  A
O1254      C1263   1.272       .  A
O1255      C1262   1.277       .  A
O1256      C1263   1.285       .  A
O1257      C1264   1.285       .  A
O1258      C1264   1.272       .  A
C1259      C1442   1.470       .  S
C1260      C1466   1.484       .  S
C1261      C1454   1.474       .  S
C1262      C1342   1.490       .  S
C1263      C1341   1.483       .  S
C1264      C1343   1.487       .  S
Zn1265     O1269   1.965       .  S
Zn1265     O1270   1.997       .  S
Zn1265     O1274   1.986       .  S
Zn1265     O1281   2.019       .  S
Zn1266     O1269   1.959       .  S
Zn1266     O1271   1.987       .  S
Zn1266     O1273   1.977       .  S
Zn1266     O1277   2.017       .  S
Zn1267     O1269   1.960       .  S
Zn1267     O1272   1.997       .  S
Zn1267     O1275   1.969       .  S
Zn1267     O1278   2.009       .  S
Zn1268     O1269   1.950       .  S
Zn1268     O1276   2.094       .  S
Zn1268     O1279   2.096       .  S
Zn1268     O1280   2.088       .  S
O1270      C1282   1.270       .  A
O1271      C1283   1.269       .  A
O1272      C1284   1.269       .  A
O1273      C1282   1.268       .  A
O1274      C1284   1.269       .  A
O1275      C1283   1.267       .  A
O1276      C1285   1.286       .  A
O1277      C1286   1.273       .  A
O1278      C1285   1.272       .  A
O1279      C1286   1.285       .  A
O1280      C1287   1.286       .  A
O1281      C1287   1.274       .  A
C1282      C1418   1.474       .  S
C1283      C1430   1.467       .  S
C1284      C1403   1.479       .  S
C1285      C1364   1.486       .  S
C1286      C1362   1.489       .  S
C1287      C1363   1.486       .  S
C1288      H1289   1.113       .  S
C1288      C1294   1.526       .  S
C1288      C1293   1.524       .  S
C1288      C1292   1.527       .  S
C1290      H1291   1.113       .  S
C1290      C1296   1.527       .  S
C1290      C1295   1.526       .  S
C1290      C1297   1.524       .  S
C1292      C1295   1.368       .  D
C1292      C1415   1.464       .  S
C1293      C1296   1.366       .  D
C1293      C1406   1.465       .  S
C1294      C1297   1.367       .  D
C1294      C1427   1.463       .  S
C1295      C1367   1.467       .  S
C1296      C1379   1.463       .  S
C1297      C1391   1.464       .  S
Zn1298     O1302   1.909       .  S
Zn1298     O1303   2.052       .  S
Zn1298     O1307   2.035       .  S
Zn1298     O1314   2.032       .  S
Zn1299     O1302   1.872       .  S
Zn1299     O1304   1.958       .  S
Zn1299     O1306   1.959       .  S
Zn1299     O1310   1.955       .  S
Zn1300     O1302   1.907       .  S
Zn1300     O1305   2.036       .  S
Zn1300     O1308   2.051       .  S
Zn1300     O1311   2.050       .  S
Zn1301     O1302   1.907       .  S
Zn1301     O1309   2.032       .  S
Zn1301     O1312   2.034       .  S
Zn1301     O1313   2.029       .  S
O1303      C1315   1.277       .  A
O1304      C1316   1.263       .  A
O1305      C1317   1.280       .  A
O1306      C1315   1.262       .  A
O1307      C1317   1.280       .  A
O1308      C1316   1.278       .  A
O1309      C1318   1.279       .  A
O1310      C1319   1.263       .  A
O1311      C1318   1.281       .  A
O1312      C1319   1.276       .  A
O1313      C1320   1.279       .  A
O1314      C1320   1.279       .  A
C1315      C1370   1.469       .  S
C1316      C1394   1.467       .  S
C1317      C1338   1.473       .  S
C1318      C1340   1.478       .  S
C1319      C1382   1.466       .  S
C1320      C1339   1.472       .  S
Zn1321     O1632   2.034       .  S
Zn1321     O1337   2.019       .  S
Zn1322     O1325   1.978       .  S
Zn1322     O1629   2.027       .  S
Zn1322     O1329   2.029       .  S
Zn1322     O1333   2.024       .  S
Zn1323     O1328   2.031       .  S
Zn1323     O1334   2.010       .  S
Zn1324     O1325   1.975   1_556  S
Zn1324     O2540   2.077       .  S
Zn1324     O1335   2.089       .  S
Zn1324     O2242   2.082       .  S
O1325     Zn2227   1.977       .  S
O1325     Zn2531   1.980       .  S
O1326     Zn2227   2.024       .  S
O1326      C1338   1.274       .  A
O1327      C1339   1.275       .  A
O1328      C1340   1.274       .  A
O1329      C1338   1.275       .  A
O1330      C1340   1.275       .  A
O1331     Zn2229   2.020       .  S
O1331      C1339   1.274       .  A
O1332      C1341   1.283       .  A
O1333      C1342   1.273   1_554  A
O1334      C1341   1.271   1_554  A
O1335      C1342   1.283       .  A
O1336      C1343   1.283       .  A
O1337      C1343   1.272   1_554  A
Zn1344     O1353   2.013       .  S
Zn1344     O2266   2.050       .  S
Zn1345     O1348   1.986       .  S
Zn1345     O1350   2.025       .  S
Zn1345     O1352   2.041       .  S
Zn1345     O2262   2.046       .  S
Zn1346     O1348   1.979       .  S
Zn1346     O1653   2.086       .  S
Zn1346     O1354   2.083       .  S
Zn1346     O2565   2.081       .  S
Zn1347     O1355   2.018       .  S
Zn1347     O1359   2.049       .  S
O1348     Zn1646   1.985       .  S
O1348     Zn2555   1.986       .  S
O1349     Zn1646   2.041       .  S
O1349      C1361   1.276       .  A
O1350      C1362   1.272       .  A
O1351      C1363   1.283       .  A
O1352      C1361   1.276       .  A
O1353      C1363   1.271       .  A
O1354      C1362   1.283       .  A
O1355      C1364   1.272       .  A
O1356      C1365   1.276       .  A
O1357      C1364   1.283       .  A
O1358     Zn1649   2.040       .  S
O1358      C1365   1.275       .  A
O1359      C1366   1.276       .  A
O1360      C1366   1.276       .  A
C1367      C1368   1.401       .  A
C1367      C1372   1.403       .  A
C1368      C1369   1.392       .  A
C1368      H1373   1.084       .  S
C1370      C2275   1.406       .  A
C1370      C2277   1.408       .  A
C1371      C1372   1.401       .  A
C1372      O1376   1.371       .  S
O1374      C2275   1.372       .  S
O1374      H2284   0.992       .  S
H1375      C2277   1.084       .  S
O1376      H1377   0.992       .  S
C1379      C1380   1.400       .  A
C1379      C1384   1.402       .  A
C1380      C1381   1.388       .  A
C1380      H1385   1.084       .  S
C1381      C1684   1.406       .  A
C1381      O1386   1.372       .  S
C1383      C1684   1.408       .  A
C1383      C1384   1.400       .  A
C1383      H1689   1.084       .  S
C1384      O1388   1.371       .  S
O1386      H1390   0.992       .  S
O1388      H1389   0.992       .  S
C1391      C1392   1.401       .  A
C1391      C1396   1.403       .  A
C1392      C1393   1.390       .  A
C1392      H1397   1.084       .  S
C1393      C1394   1.406       .  A
C1393      O1398   1.372       .  S
C1394      C1395   1.407       .  A
C1395      C1396   1.401       .  A
C1395      H1399   1.084       .  S
C1396      O1400   1.371       .  S
O1398      H1402   0.992       .  S
O1400      H1401   0.992       .  S
C1404      C1705   1.403       .  A
C1404      C1405   1.393       .  A
C1404      H1711   1.084       .  S
C1405      C1406   1.405       .  A
C1405      O1410   1.370       .  S
C1406      C1407   1.397       .  A
C1407      C1408   1.400       .  A
C1407      H1411   1.084       .  S
C1408      C1705   1.416       .  A
C1408      O1412   1.372       .  S
O1410      H1414   0.991       .  S
O1412      H1413   0.992       .  S
C1415      C1416   1.401       .  A
C1415      C1420   1.402       .  A
C1416      H1421   1.083       .  S
C1417      C2322   1.392       .  A
C1417      C1418   1.408       .  A
C1417      O1422   1.372       .  S
C1418      C2325   1.409       .  A
C1419      C1420   1.400       .  A
C1419      H1423   1.084       .  S
C1420      O1424   1.373       .  S
O1422      H1426   0.992       .  S
O1424      H1425   0.991       .  S
C1427      C1428   1.402       .  A
C1427      C1432   1.401       .  A
C1428      C1429   1.391       .  A
C1428      H1433   1.082       .  S
C1429      C1430   1.405       .  A
C1429      O1434   1.372       .  S
C1430      C1431   1.408       .  A
C1431      C1432   1.397       .  A
C1431      H1435   1.084       .  S
C1432      O1436   1.371       .  S
O1434      H1438   0.992       .  S
O1436      H1437   0.991       .  S
C1439      C1440   1.400       .  A
C1439      C1444   1.409       .  A
C1440      C2347   1.402       .  A
C1440      H1445   1.082       .  S
C1441      C1442   1.414       .  A
C1441      O1446   1.372       .  S
C1443      C2348   1.396       .  A
C1443      C1444   1.390       .  A
C1443      H1447   1.084       .  S
C1444      O1448   1.369       .  S
O1446      H1450   0.992       .  S
O1448      H1449   0.992       .  S
C1451      C1452   1.399       .  A
C1451      C1456   1.404       .  A
C1452      H1457   1.081       .  S
C1453      C1754   1.389       .  A
C1453      C1454   1.409       .  A
C1453      O1458   1.372       .  S
C1454      C1757   1.410       .  A
C1455      C1456   1.402       .  A
C1455      H1459   1.083       .  S
C1456      O1460   1.373       .  S
O1458      H1462   0.992       .  S
O1460      H1461   0.991       .  S
C1463      C1464   1.397       .  A
C1463      C1468   1.404       .  A
C1464      C1465   1.400       .  A
C1464      H1469   1.084       .  S
C1465      C1466   1.417       .  A
C1465      O1470   1.372       .  S
C1466      C1467   1.405       .  A
C1467      C1468   1.397       .  A
C1467      H1471   1.083       .  S
C1468      O1472   1.373       .  S
O1470      H1474   0.992       .  S
O1472      H1473   0.991       .  S
C1475      C1476   1.406       .  A
C1476      H1481   1.083       .  S
C1477      C2382   1.394       .  A
C1477      C1478   1.402       .  A
C1477      O1482   1.371       .  S
C1478      C1479   1.398       .  A
C1479      C1480   1.399       .  A
C1479      H1483   1.083       .  S
C1480      C2381   1.415       .  A
C1480      O1484   1.372       .  S
O1482      H2392   0.991       .  S
O1484      H1485   0.992       .  S
C1487      C1488   1.398       .  A
C1487      C1492   1.403       .  A
C1488      C1489   1.389       .  A
C1488      H1493   1.079       .  S
C1489      O1494   1.372       .  S
C1490      C1791   1.410       .  A
C1490      C1491   1.411       .  A
C1491      C1794   1.405       .  A
C1491      H1495   1.083       .  S
C1492      O1496   1.374       .  S
O1494      H1498   0.992       .  S
H1497      O1798   0.991       .  S
C1499      C1500   1.412       .  A
C1499      C1504   1.408       .  A
C1500      C1501   1.401       .  A
C1500      H1505   1.083       .  S
C1501      C1502   1.401       .  A
C1501      O1506   1.370       .  S
C1502      C1503   1.400       .  A
C1503      C1504   1.391       .  A
C1503      H1507   1.079       .  S
C1504      O1508   1.372       .  S
O1506      H1510   0.992       .  S
O1508      H1509   0.992       .  S
Zn1511     O1515   1.964       .  S
Zn1511     O1516   1.989       .  S
Zn1511     O1520   2.014       .  S
Zn1511     O1527   2.009       .  S
Zn1512     O1515   1.954       .  S
Zn1512     O1517   2.016       .  S
Zn1512     O1519   1.992       .  S
Zn1512     O1523   1.990       .  S
Zn1513     O1515   1.957       .  S
Zn1513     O1518   2.081       .  S
Zn1513     O1521   2.087       .  S
Zn1513     O1524   2.088       .  S
Zn1514     O1515   1.950       .  S
Zn1514     O1522   1.998       .  S
Zn1514     O1525   1.987       .  S
Zn1514     O1526   1.968       .  S
O1516      C1528   1.271       .  A
O1517      C1529   1.273       .  A
O1518      C1530   1.283       .  A
O1519      C1528   1.269       .  A
O1520      C1530   1.274       .  A
O1521      C1529   1.283       .  A
O1522      C1531   1.270       .  A
O1523      C1532   1.270       .  A
O1524      C1531   1.283       .  A
O1525      C1532   1.268       .  A
O1526      C1533   1.267       .  A
O1527      C1533   1.270       .  A
C1528      C1777   1.481       .  S
C1529      C1668   1.478       .  S
C1530      C1667   1.474       .  S
C1531      C1663   1.473       .  S
C1532      C1801   1.478       .  S
C1533      C1792   1.479       .  S
C1534      H1535   1.113       .  S
C1534      C1540   1.528       .  S
C1534      C1539   1.526       .  S
C1534      C1538   1.527       .  S
C1536      H1537   1.112       .  S
C1536      C1542   1.527       .  S
C1536      C1541   1.528       .  S
C1536      C1543   1.534       .  S
C1538      C1541   1.369       .  D
C1538      C1780   1.462       .  S
C1539      C1542   1.367       .  D
C1539      C1804   1.468       .  S
C1540      C1543   1.367       .  D
C1540      C1789   1.469       .  S
C1541      C1741   1.475       .  S
C1542      C1765   1.465       .  S
C1543      C1753   1.467       .  S
Zn1544     O1548   1.955       .  S
Zn1544     O1549   1.990       .  S
Zn1544     O1553   1.962       .  S
Zn1544     O1560   2.010       .  S
Zn1545     O1548   1.954       .  S
Zn1545     O1550   1.989       .  S
Zn1545     O1552   1.979       .  S
Zn1545     O1556   2.005       .  S
Zn1546     O1548   1.964       .  S
Zn1546     O1551   2.002       .  S
Zn1546     O1554   1.997       .  S
Zn1546     O1557   2.034       .  S
Zn1547     O1548   1.948       .  S
Zn1547     O1555   2.090       .  S
Zn1547     O1558   2.089       .  S
Zn1547     O1559   2.097       .  S
O1549      C1561   1.267       .  A
O1550      C1562   1.268       .  A
O1551      C1563   1.270       .  A
O1552      C1561   1.269       .  A
O1553      C1563   1.267       .  A
O1554      C1562   1.271       .  A
O1555      C1564   1.286       .  A
O1556      C1565   1.272       .  A
O1557      C1564   1.277       .  A
O1558      C1565   1.285       .  A
O1559      C1566   1.285       .  A
O1560      C1566   1.272       .  A
C1561      C1744   1.470       .  S
C1562      C1768   1.483       .  S
C1563      C1756   1.474       .  S
C1564      C1644   1.490       .  S
C1565      C1643   1.483       .  S
C1566      C1645   1.487       .  S
Zn1567     O1571   1.965       .  S
Zn1567     O1572   1.997       .  S
Zn1567     O1576   1.986       .  S
Zn1567     O1583   2.019       .  S
Zn1568     O1571   1.959       .  S
Zn1568     O1573   1.987       .  S
Zn1568     O1575   1.977       .  S
Zn1568     O1579   2.017       .  S
Zn1569     O1571   1.960       .  S
Zn1569     O1574   1.997       .  S
Zn1569     O1577   1.969       .  S
Zn1569     O1580   2.009       .  S
Zn1570     O1571   1.950       .  S
Zn1570     O1578   2.094       .  S
Zn1570     O1581   2.096       .  S
Zn1570     O1582   2.088       .  S
O1572      C1584   1.270       .  A
O1573      C1585   1.269       .  A
O1574      C1586   1.269       .  A
O1575      C1584   1.268       .  A
O1576      C1586   1.269       .  A
O1577      C1585   1.267       .  A
O1578      C1587   1.286       .  A
O1579      C1588   1.273       .  A
O1580      C1587   1.272       .  A
O1581      C1588   1.285       .  A
O1582      C1589   1.286       .  A
O1583      C1589   1.274       .  A
C1584      C1720   1.474       .  S
C1585      C1732   1.467       .  S
C1586      C1705   1.479       .  S
C1587      C1666   1.486       .  S
C1588      C1664   1.489       .  S
C1589      C1665   1.486       .  S
C1590      H1591   1.113       .  S
C1590      C1596   1.526       .  S
C1590      C1595   1.524       .  S
C1590      C1594   1.527       .  S
C1592      H1593   1.113       .  S
C1592      C1598   1.526       .  S
C1592      C1597   1.526       .  S
C1592      C1599   1.524       .  S
C1594      C1597   1.368       .  D
C1594      C1717   1.464       .  S
C1595      C1598   1.366       .  D
C1595      C1708   1.465       .  S
C1596      C1599   1.367       .  D
C1596      C1729   1.463       .  S
C1597      C1669   1.467       .  S
C1598      C1681   1.463       .  S
C1599      C1693   1.464       .  S
Zn1600     O1604   1.909       .  S
Zn1600     O1605   2.053       .  S
Zn1600     O1609   2.036       .  S
Zn1600     O1616   2.033       .  S
Zn1601     O1604   1.872       .  S
Zn1601     O1606   1.958       .  S
Zn1601     O1608   1.959       .  S
Zn1601     O1612   1.955       .  S
Zn1602     O1604   1.907       .  S
Zn1602     O1607   2.036       .  S
Zn1602     O1610   2.051       .  S
Zn1602     O1613   2.050       .  S
Zn1603     O1604   1.908       .  S
Zn1603     O1611   2.032       .  S
Zn1603     O1614   2.034       .  S
Zn1603     O1615   2.029       .  S
O1605      C1617   1.277       .  A
O1606      C1618   1.263       .  A
O1607      C1619   1.280       .  A
O1608      C1617   1.262       .  A
O1609      C1619   1.280       .  A
O1610      C1618   1.278       .  A
O1611      C1620   1.279       .  A
O1612      C1621   1.263       .  A
O1613      C1620   1.281       .  A
O1614      C1621   1.276       .  A
O1615      C1622   1.279       .  A
O1616      C1622   1.279       .  A
C1617      C1672   1.469       .  S
C1618      C1696   1.467       .  S
C1619      C1640   1.473       .  S
C1620      C1642   1.478       .  S
C1621      C1684   1.466       .  S
C1622      C1641   1.472       .  S
Zn1623     O1639   2.020       .  S
Zn1624     O1627   1.978   1_565  S
Zn1624     O1631   2.029       .  S
Zn1624     O1635   2.024       .  S
Zn1625     O1630   2.031       .  S
Zn1625     O1636   2.010       .  S
Zn1626     O1627   1.975   1_556  S
Zn1626     O1936   2.077       .  S
Zn1626     O1637   2.089   1_545  S
Zn1626     O2544   2.082   1_545  S
O1627     Zn2529   1.977   1_545  S
O1627     Zn1927   1.980       .  S
O1628     Zn2529   2.024       .  S
O1628      C1640   1.275       .  A
O1629      C1641   1.275       .  A
O1630      C1642   1.274       .  A
O1631      C1640   1.275       .  A
O1632      C1642   1.275       .  A
O1633     Zn2531   2.020       .  S
O1633      C1641   1.274       .  A
O1634      C1643   1.283       .  A
O1635      C1644   1.273   1_554  A
O1636      C1643   1.271   1_554  A
O1637      C1644   1.283       .  A
O1638      C1645   1.283       .  A
O1639      C1645   1.272   1_554  A
Zn1646     O1655   2.013       .  S
Zn1646     O2568   2.050       .  S
Zn1647     O1650   1.986       .  S
Zn1647     O1652   2.025       .  S
Zn1647     O1654   2.042       .  S
Zn1647     O2564   2.046       .  S
Zn1648     O1650   1.979       .  S
Zn1648     O1656   2.083       .  S
Zn1648     O1961   2.081   1_565  S
Zn1649     O1657   2.018       .  S
Zn1649     O1661   2.048       .  S
O1650     Zn1951   1.986   1_565  S
O1651      C1663   1.276       .  A
O1652      C1664   1.272       .  A
O1653      C1665   1.283       .  A
O1654      C1663   1.276       .  A
O1655      C1665   1.271       .  A
O1656      C1664   1.283       .  A
O1657      C1666   1.272       .  A
O1658      C1667   1.276       .  A
O1659      C1666   1.283       .  A
O1660      C1667   1.275       .  A
O1661      C1668   1.276       .  A
O1662      C1668   1.276       .  A
C1669      C1670   1.401       .  A
C1669      C1674   1.403       .  A
C1670      C1671   1.392       .  A
C1670      H1675   1.084       .  S
C1672      C2577   1.406       .  A
C1672      C2579   1.408       .  A
C1673      C1674   1.401       .  A
C1674      O1678   1.371       .  S
O1676      C2577   1.372       .  S
O1676      H2586   0.992       .  S
H1677      C2579   1.084       .  S
O1678      H1679   0.992       .  S
C1681      C1682   1.400       .  A
C1681      C1686   1.402       .  A
C1682      C1683   1.388       .  A
C1682      H1687   1.084       .  S
C1683      O1688   1.372       .  S
C1685      C1686   1.400   1_545  A
C1686      O1690   1.371       .  S
O1688      H1692   0.992       .  S
O1690      H1691   0.992   1_565  S
C1693      C1694   1.401       .  A
C1693      C1698   1.403       .  A
C1694      C1695   1.390       .  A
C1694      H1699   1.084       .  S
C1695      C1696   1.406       .  A
C1695      O1700   1.372       .  S
C1696      C1697   1.407       .  A
C1697      C1698   1.401       .  A
C1697      H1701   1.084       .  S
C1698      O1702   1.371       .  S
O1700      H1704   0.992       .  S
O1702      H1703   0.992       .  S
C1706      C1707   1.393       .  A
C1707      C1708   1.405       .  A
C1707      O1712   1.370       .  S
C1708      C1709   1.397       .  A
C1709      C1710   1.400   1_565  A
C1709      H1713   1.084       .  S
C1710      O1714   1.372       .  S
O1712      H1716   0.991       .  S
O1714      H1715   0.992       .  S
C1717      C1718   1.401       .  A
C1717      C1722   1.402       .  A
C1718      H1723   1.083       .  S
C1719      C2624   1.392       .  A
C1719      C1720   1.408       .  A
C1719      O1724   1.372       .  S
C1720      C2627   1.409       .  A
C1721      C1722   1.400       .  A
C1721      H1725   1.084       .  S
C1722      O1726   1.373       .  S
O1724      H1728   0.992       .  S
O1726      H1727   0.991       .  S
C1729      C1730   1.402       .  A
C1729      C1734   1.401       .  A
C1730      C1731   1.391       .  A
C1730      H1735   1.082       .  S
C1731      C1732   1.405       .  A
C1731      O1736   1.372       .  S
C1732      C1733   1.408       .  A
C1733      C1734   1.397       .  A
C1733      H1737   1.084       .  S
C1734      O1738   1.371       .  S
O1736      H1740   0.992       .  S
O1738      H1739   0.991       .  S
C1741      C1742   1.400       .  A
C1741      C1746   1.409       .  A
C1742      C2649   1.402       .  A
C1742      H1747   1.082       .  S
C1743      C1744   1.414       .  A
C1743      O1748   1.372       .  S
C1745      C2650   1.396       .  A
C1745      C1746   1.390       .  A
C1745      H1749   1.084       .  S
C1746      O1750   1.369       .  S
O1748      H1752   0.992       .  S
O1750      H1751   0.992       .  S
C1753      C1754   1.399       .  A
C1753      C1758   1.404       .  A
C1754      H1759   1.081       .  S
C1755      C1756   1.409   1_545  A
C1755      O1760   1.372       .  S
C1757      C1758   1.402       .  A
C1757      H1761   1.083       .  S
C1758      O1762   1.373       .  S
O1760      H1764   0.992       .  S
O1762      H1763   0.991       .  S
C1765      C1766   1.397       .  A
C1765      C1770   1.404       .  A
C1766      C1767   1.400       .  A
C1766      H1771   1.084       .  S
C1767      C1768   1.417       .  A
C1767      O1772   1.372       .  S
C1768      C1769   1.405       .  A
C1769      C1770   1.397       .  A
C1769      H1773   1.083       .  S
C1770      O1774   1.373       .  S
O1772      H1776   0.992       .  S
O1774      H1775   0.991       .  S
C1777      C1778   1.406       .  A
C1778      H1783   1.083       .  S
C1779      C2684   1.394       .  A
C1779      C1780   1.402       .  A
C1779      O1784   1.371       .  S
C1780      C1781   1.398       .  A
C1781      C1782   1.399       .  A
C1781      H1785   1.083       .  S
C1782      C2683   1.415       .  A
C1782      O1786   1.371       .  S
O1784      H2694   0.991       .  S
O1786      H1787   0.992       .  S
C1789      C1790   1.398       .  A
C1789      C1794   1.403       .  A
C1790      C1791   1.389       .  A
C1790      H1795   1.079       .  S
C1791      O1796   1.372       .  S
C1792      C1793   1.411       .  A
C1793      H1797   1.083       .  S
C1794      O1798   1.374       .  S
O1796      H1800   0.992       .  S
C1801      C1802   1.412       .  A
C1801      C1806   1.408       .  A
C1802      C1803   1.401       .  A
C1802      H1807   1.083       .  S
C1803      C1804   1.401       .  A
C1803      O1808   1.370       .  S
C1804      C1805   1.400       .  A
C1805      C1806   1.391       .  A
C1805      H1809   1.079       .  S
C1806      O1810   1.372       .  S
O1808      H1812   0.992       .  S
O1810      H1811   0.992       .  S
Zn1813     O1817   1.964       .  S
Zn1813     O1818   1.988       .  S
Zn1813     O1822   2.014       .  S
Zn1813     O1829   2.010       .  S
Zn1814     O1817   1.954       .  S
Zn1814     O1819   2.016       .  S
Zn1814     O1821   1.991       .  S
Zn1814     O1825   1.990       .  S
Zn1815     O1817   1.957       .  S
Zn1815     O1820   2.081       .  S
Zn1815     O1823   2.087       .  S
Zn1815     O1826   2.088       .  S
Zn1816     O1817   1.950       .  S
Zn1816     O1824   1.998       .  S
Zn1816     O1827   1.987       .  S
Zn1816     O1828   1.968       .  S
O1818      C1830   1.271       .  A
O1819      C1831   1.273       .  A
O1820      C1832   1.283       .  A
O1821      C1830   1.269       .  A
O1822      C1832   1.273       .  A
O1823      C1831   1.283       .  A
O1824      C1833   1.270       .  A
O1825      C1834   1.270       .  A
O1826      C1833   1.283       .  A
O1827      C1834   1.268       .  A
O1828      C1835   1.267       .  A
O1829      C1835   1.270       .  A
C1830      C2079   1.481       .  S
C1831      C1970   1.478       .  S
C1832      C1969   1.474       .  S
C1833      C1965   1.473       .  S
C1834      C2103   1.478       .  S
C1835      C2094   1.479       .  S
C1836      H1837   1.113       .  S
C1836      C1842   1.528       .  S
C1836      C1841   1.526       .  S
C1836      C1840   1.527       .  S
C1838      H1839   1.112       .  S
C1838      C1844   1.527       .  S
C1838      C1843   1.528       .  S
C1838      C1845   1.534       .  S
C1840      C1843   1.369       .  D
C1840      C2082   1.462       .  S
C1841      C1844   1.367       .  D
C1841      C2106   1.468       .  S
C1842      C1845   1.367       .  D
C1842      C2091   1.469       .  S
C1843      C2043   1.475       .  S
C1844      C2067   1.465       .  S
C1845      C2055   1.467       .  S
Zn1846     O1850   1.955       .  S
Zn1846     O1851   1.989       .  S
Zn1846     O1855   1.962       .  S
Zn1846     O1862   2.010       .  S
Zn1847     O1850   1.954       .  S
Zn1847     O1852   1.989       .  S
Zn1847     O1854   1.979       .  S
Zn1847     O1858   2.005       .  S
Zn1848     O1850   1.964       .  S
Zn1848     O1853   2.002       .  S
Zn1848     O1856   1.997       .  S
Zn1848     O1859   2.034       .  S
Zn1849     O1850   1.948       .  S
Zn1849     O1857   2.090       .  S
Zn1849     O1860   2.089       .  S
Zn1849     O1861   2.096       .  S
O1851      C1863   1.267       .  A
O1852      C1864   1.268       .  A
O1853      C1865   1.270       .  A
O1854      C1863   1.269       .  A
O1855      C1865   1.267       .  A
O1856      C1864   1.271       .  A
O1857      C1866   1.286       .  A
O1858      C1867   1.272       .  A
O1859      C1866   1.277       .  A
O1860      C1867   1.285       .  A
O1861      C1868   1.285       .  A
O1862      C1868   1.272       .  A
C1863      C2046   1.470       .  S
C1864      C2070   1.483       .  S
C1865      C2058   1.474       .  S
C1866      C1946   1.490       .  S
C1867      C1945   1.483       .  S
C1868      C1947   1.487       .  S
Zn1869     O1873   1.965       .  S
Zn1869     O1874   1.998       .  S
Zn1869     O1878   1.986       .  S
Zn1869     O1885   2.019       .  S
Zn1870     O1873   1.959       .  S
Zn1870     O1875   1.987       .  S
Zn1870     O1877   1.977       .  S
Zn1870     O1881   2.017       .  S
Zn1871     O1873   1.960       .  S
Zn1871     O1876   1.997       .  S
Zn1871     O1879   1.969       .  S
Zn1871     O1882   2.009       .  S
Zn1872     O1873   1.950       .  S
Zn1872     O1880   2.094       .  S
Zn1872     O1883   2.096       .  S
Zn1872     O1884   2.088       .  S
O1874      C1886   1.270       .  A
O1875      C1887   1.269       .  A
O1876      C1888   1.269       .  A
O1877      C1886   1.268       .  A
O1878      C1888   1.269       .  A
O1879      C1887   1.267       .  A
O1880      C1889   1.286       .  A
O1881      C1890   1.273       .  A
O1882      C1889   1.272       .  A
O1883      C1890   1.285       .  A
O1884      C1891   1.286       .  A
O1885      C1891   1.274       .  A
C1886      C2022   1.474       .  S
C1887      C2034   1.467       .  S
C1888      C2007   1.479       .  S
C1889      C1968   1.485       .  S
C1890      C1966   1.489       .  S
C1891      C1967   1.486       .  S
C1892      H1893   1.113       .  S
C1892      C1898   1.526       .  S
C1892      C1897   1.524       .  S
C1892      C1896   1.527       .  S
C1894      H1895   1.113       .  S
C1894      C1900   1.526       .  S
C1894      C1899   1.526       .  S
C1894      C1901   1.524       .  S
C1896      C1899   1.368       .  D
C1896      C2019   1.464       .  S
C1897      C1900   1.366       .  D
C1897      C2010   1.465       .  S
C1898      C1901   1.367       .  D
C1898      C2031   1.463       .  S
C1899      C1971   1.467       .  S
C1900      C1983   1.463       .  S
C1901      C1995   1.464       .  S
Zn1902     O1906   1.909       .  S
Zn1902     O1907   2.053       .  S
Zn1902     O1911   2.035       .  S
Zn1902     O1918   2.032       .  S
Zn1903     O1906   1.872       .  S
Zn1903     O1908   1.958       .  S
Zn1903     O1910   1.959       .  S
Zn1903     O1914   1.955       .  S
Zn1904     O1906   1.908       .  S
Zn1904     O1909   2.036       .  S
Zn1904     O1912   2.051       .  S
Zn1904     O1915   2.050       .  S
Zn1905     O1906   1.908       .  S
Zn1905     O1913   2.033       .  S
Zn1905     O1916   2.034       .  S
Zn1905     O1917   2.029       .  S
O1907      C1919   1.277       .  A
O1908      C1920   1.263       .  A
O1909      C1921   1.280       .  A
O1910      C1919   1.262       .  A
O1911      C1921   1.280       .  A
O1912      C1920   1.278       .  A
O1913      C1922   1.279       .  A
O1914      C1923   1.263       .  A
O1915      C1922   1.281       .  A
O1916      C1923   1.276       .  A
O1917      C1924   1.279       .  A
O1918      C1924   1.279       .  A
C1919      C1974   1.469       .  S
C1920      C1998   1.467       .  S
C1921      C1942   1.473       .  S
C1922      C1944   1.478       .  S
C1923      C1986   1.466       .  S
C1924      C1943   1.472       .  S
Zn1925     O2236   2.034       .  S
Zn1925     O1941   2.019       .  S
Zn1926     O1929   1.978   1_655  S
Zn1926     O2233   2.027       .  S
Zn1926     O1933   2.029       .  S
Zn1926     O1937   2.024       .  S
Zn1927     O1932   2.031       .  S
Zn1927     O1938   2.010       .  S
Zn1928     O1929   1.975   1_556  S
Zn1928     O1939   2.089   1_455  S
O1930      C1942   1.274       .  A
O1931     Zn2530   2.027   1_545  S
O1931      C1943   1.275       .  A
O1932      C1944   1.274       .  A
O1933      C1942   1.275       .  A
O1934     Zn2529   2.034   1_545  S
O1934      C1944   1.275       .  A
O1935      C1943   1.274       .  A
O1936      C1945   1.283       .  A
O1937      C1946   1.273   1_554  A
O1938      C1945   1.271   1_554  A
O1939      C1946   1.283       .  A
O1940      C1947   1.283       .  A
O1941      C1947   1.272   1_554  A
Zn1948     O2556   1.985   1_545  S
Zn1948     O2557   2.041   1_545  S
Zn1948     O1957   2.013       .  S
Zn1949     O1952   1.986       .  S
Zn1949     O1954   2.025       .  S
Zn1949     O1956   2.042       .  S
Zn1950     O1952   1.979       .  S
Zn1950     O2257   2.086       .  S
Zn1950     O1958   2.083       .  S
Zn1951     O1959   2.018       .  S
Zn1951     O2566   2.040   1_545  S
Zn1951     O1963   2.048       .  S
O1952     Zn2250   1.985       .  S
O1953     Zn2250   2.041       .  S
O1953      C1965   1.276       .  A
O1954      C1966   1.272       .  A
O1955     Zn2554   2.085   1_545  S
O1955      C1967   1.283       .  A
O1956      C1965   1.276       .  A
O1957      C1967   1.271       .  A
O1958      C1966   1.283       .  A
O1959      C1968   1.272       .  A
O1960      C1969   1.276       .  A
O1961      C1968   1.283       .  A
O1962     Zn2253   2.040       .  S
O1962      C1969   1.275       .  A
O1963      C1970   1.276       .  A
O1964      C1970   1.276       .  A
C1971      C1972   1.401       .  A
C1971      C1976   1.403       .  A
C1972      C1973   1.392       .  A
C1972      H1977   1.084       .  S
C1975      C1976   1.401       .  A
C1976      O1980   1.371       .  S
O1980      H1981   0.992       .  S
C1983      C1984   1.400       .  A
C1983      C1988   1.402       .  A
C1984      C1985   1.388       .  A
C1984      H1989   1.084       .  S
C1985      C2288   1.406       .  A
C1985      O1990   1.372       .  S
C1986      C2589   1.406   1_545  A
C1986      C2591   1.408       .  A
C1987      C2288   1.408       .  A
C1987      C1988   1.400       .  A
C1987      H2293   1.084       .  S
C1988      O1992   1.371       .  S
O1990      H1994   0.992       .  S
H1991      C2591   1.084       .  S
O1992      H1993   0.992       .  S
C1995      C1996   1.401       .  A
C1995      C2000   1.404       .  A
C1996      C1997   1.390       .  A
C1996      H2001   1.084       .  S
C1997      C1998   1.406       .  A
C1997      O2002   1.372       .  S
C1998      C1999   1.407       .  A
C1999      C2000   1.401       .  A
C1999      H2003   1.084       .  S
C2000      O2004   1.371       .  S
O2002      H2006   0.992       .  S
O2004      H2005   0.992       .  S
C2007      C2612   1.403   1_545  A
C2007      C2616   1.416       .  A
C2008      C2309   1.403       .  A
C2008      C2009   1.393       .  A
C2008      H2315   1.084       .  S
C2009      C2010   1.405       .  A
C2009      O2014   1.370       .  S
C2010      C2011   1.397       .  A
C2011      C2012   1.400       .  A
C2011      H2015   1.084       .  S
C2012      C2309   1.416       .  A
C2012      O2016   1.372       .  S
H2013      C2612   1.084       .  S
O2014      H2018   0.991       .  S
O2016      H2017   0.992       .  S
C2019      C2020   1.401       .  A
C2019      C2024   1.402       .  A
C2020      H2025   1.083       .  S
C2021      C2022   1.408   1_455  A
C2021      O2026   1.372       .  S
C2023      C2024   1.400       .  A
C2023      H2027   1.084       .  S
C2024      O2028   1.373       .  S
O2026      H2030   0.992       .  S
O2028      H2029   0.991       .  S
C2031      C2032   1.402       .  A
C2031      C2036   1.401       .  A
C2032      C2033   1.391       .  A
C2032      H2037   1.082       .  S
C2033      C2034   1.405       .  A
C2033      O2038   1.372       .  S
C2034      C2035   1.408       .  A
C2035      C2036   1.397       .  A
C2035      H2039   1.084       .  S
C2036      O2040   1.371       .  S
O2038      H2042   0.992       .  S
O2040      H2041   0.991       .  S
C2043      C2044   1.400       .  A
C2043      C2048   1.409       .  A
C2044      H2049   1.082       .  S
C2045      C2046   1.414       .  A
C2045      O2050   1.372       .  S
C2047      C2048   1.390       .  A
C2047      H2051   1.084       .  S
C2048      O2052   1.369       .  S
O2050      H2054   0.992       .  S
O2052      H2053   0.992       .  S
C2055      C2056   1.399       .  A
C2055      C2060   1.404       .  A
C2056      C2661   1.389       .  A
C2056      H2061   1.081       .  S
C2057      C2358   1.389       .  A
C2057      C2058   1.409       .  A
C2057      O2062   1.372       .  S
C2058      C2361   1.410       .  A
C2059      C2662   1.410       .  A
C2059      C2060   1.402   1_565  A
C2059      H2063   1.083       .  S
C2060      O2064   1.373       .  S
O2062      H2066   0.992       .  S
O2064      H2065   0.991       .  S
C2067      C2068   1.397       .  A
C2067      C2072   1.404       .  A
C2068      C2069   1.400       .  A
C2068      H2073   1.084       .  S
C2069      C2070   1.417       .  A
C2069      O2074   1.372       .  S
C2070      C2071   1.405       .  A
C2071      C2072   1.397       .  A
C2071      H2075   1.083       .  S
C2072      O2076   1.373       .  S
O2074      H2078   0.992       .  S
O2076      H2077   0.991       .  S
C2079      C2080   1.406       .  A
C2080      H2085   1.083       .  S
C2081      C2082   1.402       .  A
C2081      O2086   1.371       .  S
C2082      C2083   1.398       .  A
C2083      C2084   1.399       .  A
C2083      H2087   1.083       .  S
C2084      O2088   1.371   1_655  S
O2088      H2089   0.992   1_455  S
C2091      C2092   1.398       .  A
C2091      C2096   1.403       .  A
C2092      C2093   1.389       .  A
C2092      H2097   1.079       .  S
C2093      C2698   1.410   1_545  A
C2093      O2098   1.372       .  S
C2094      C2395   1.410       .  A
C2094      C2095   1.411       .  A
C2095      C2398   1.406       .  A
C2095      H2099   1.083       .  S
C2096      C2699   1.405   1_545  A
C2096      O2100   1.374       .  S
O2098      H2102   0.992   1_545  S
O2100      H2705   0.991       .  S
H2101      O2402   0.991       .  S
C2103      C2104   1.412       .  A
C2103      C2108   1.408       .  A
C2104      C2105   1.401       .  A
C2104      H2109   1.083       .  S
C2105      C2106   1.401       .  A
C2105      O2110   1.370       .  S
C2106      C2107   1.400       .  A
C2107      C2108   1.391       .  A
C2107      H2111   1.079       .  S
C2108      O2112   1.372       .  S
O2110      H2114   0.992       .  S
O2112      H2113   0.992       .  S
Zn2115     O2119   1.964       .  S
Zn2115     O2120   1.989       .  S
Zn2115     O2124   2.014       .  S
Zn2115     O2131   2.010       .  S
Zn2116     O2119   1.954       .  S
Zn2116     O2121   2.016       .  S
Zn2116     O2123   1.992       .  S
Zn2116     O2127   1.990       .  S
Zn2117     O2119   1.957       .  S
Zn2117     O2122   2.081       .  S
Zn2117     O2125   2.088       .  S
Zn2117     O2128   2.088       .  S
Zn2118     O2119   1.950       .  S
Zn2118     O2126   1.998       .  S
Zn2118     O2129   1.987       .  S
Zn2118     O2130   1.968       .  S
O2120      C2132   1.271       .  A
O2121      C2133   1.273       .  A
O2122      C2134   1.283       .  A
O2123      C2132   1.269       .  A
O2124      C2134   1.274       .  A
O2125      C2133   1.283       .  A
O2126      C2135   1.270       .  A
O2127      C2136   1.270       .  A
O2128      C2135   1.283       .  A
O2129      C2136   1.268       .  A
O2130      C2137   1.267       .  A
O2131      C2137   1.270       .  A
C2132      C2381   1.481       .  S
C2133      C2272   1.478       .  S
C2134      C2271   1.474       .  S
C2135      C2267   1.473       .  S
C2136      C2405   1.478       .  S
C2137      C2396   1.479       .  S
C2138      H2139   1.113       .  S
C2138      C2144   1.528       .  S
C2138      C2143   1.526       .  S
C2138      C2142   1.527       .  S
C2140      H2141   1.112       .  S
C2140      C2146   1.527       .  S
C2140      C2145   1.528       .  S
C2140      C2147   1.534       .  S
C2142      C2145   1.368       .  D
C2142      C2384   1.462       .  S
C2143      C2146   1.367       .  D
C2143      C2408   1.468       .  S
C2144      C2147   1.367       .  D
C2144      C2393   1.469       .  S
C2145      C2345   1.475       .  S
C2146      C2369   1.465       .  S
C2147      C2357   1.467       .  S
Zn2148     O2152   1.955       .  S
Zn2148     O2153   1.990       .  S
Zn2148     O2157   1.962       .  S
Zn2148     O2164   2.010       .  S
Zn2149     O2152   1.954       .  S
Zn2149     O2154   1.990       .  S
Zn2149     O2156   1.979       .  S
Zn2149     O2160   2.005       .  S
Zn2150     O2152   1.963       .  S
Zn2150     O2155   2.002       .  S
Zn2150     O2158   1.997       .  S
Zn2150     O2161   2.034       .  S
Zn2151     O2152   1.948       .  S
Zn2151     O2159   2.090       .  S
Zn2151     O2162   2.089       .  S
Zn2151     O2163   2.096       .  S
O2153      C2165   1.267       .  A
O2154      C2166   1.268       .  A
O2155      C2167   1.270       .  A
O2156      C2165   1.269       .  A
O2157      C2167   1.267       .  A
O2158      C2166   1.271       .  A
O2159      C2168   1.286       .  A
O2160      C2169   1.272       .  A
O2161      C2168   1.277       .  A
O2162      C2169   1.285       .  A
O2163      C2170   1.285       .  A
O2164      C2170   1.272       .  A
C2165      C2348   1.470       .  S
C2166      C2372   1.484       .  S
C2167      C2360   1.474       .  S
C2168      C2248   1.490       .  S
C2169      C2247   1.483       .  S
C2170      C2249   1.487       .  S
Zn2171     O2175   1.965       .  S
Zn2171     O2176   1.997       .  S
Zn2171     O2180   1.986       .  S
Zn2171     O2187   2.019       .  S
Zn2172     O2175   1.959       .  S
Zn2172     O2177   1.987       .  S
Zn2172     O2179   1.977       .  S
Zn2172     O2183   2.017       .  S
Zn2173     O2175   1.960       .  S
Zn2173     O2178   1.997       .  S
Zn2173     O2181   1.969       .  S
Zn2173     O2184   2.009       .  S
Zn2174     O2175   1.950       .  S
Zn2174     O2182   2.094       .  S
Zn2174     O2185   2.096       .  S
Zn2174     O2186   2.088       .  S
O2176      C2188   1.270       .  A
O2177      C2189   1.269       .  A
O2178      C2190   1.269       .  A
O2179      C2188   1.268       .  A
O2180      C2190   1.269       .  A
O2181      C2189   1.267       .  A
O2182      C2191   1.286       .  A
O2183      C2192   1.273       .  A
O2184      C2191   1.272       .  A
O2185      C2192   1.285       .  A
O2186      C2193   1.286       .  A
O2187      C2193   1.274       .  A
C2188      C2324   1.474       .  S
C2189      C2336   1.467       .  S
C2190      C2309   1.479       .  S
C2191      C2270   1.486       .  S
C2192      C2268   1.489       .  S
C2193      C2269   1.486       .  S
C2194      H2195   1.113       .  S
C2194      C2200   1.526       .  S
C2194      C2199   1.524       .  S
C2194      C2198   1.527       .  S
C2196      H2197   1.113       .  S
C2196      C2202   1.527       .  S
C2196      C2201   1.526       .  S
C2196      C2203   1.524       .  S
C2198      C2201   1.368       .  D
C2198      C2321   1.464       .  S
C2199      C2202   1.366       .  D
C2199      C2312   1.465       .  S
C2200      C2203   1.367       .  D
C2200      C2333   1.463       .  S
C2201      C2273   1.467       .  S
C2202      C2285   1.463       .  S
C2203      C2297   1.464       .  S
Zn2204     O2208   1.909       .  S
Zn2204     O2209   2.052       .  S
Zn2204     O2213   2.035       .  S
Zn2204     O2220   2.032       .  S
Zn2205     O2208   1.872       .  S
Zn2205     O2210   1.958       .  S
Zn2205     O2212   1.959       .  S
Zn2205     O2216   1.955       .  S
Zn2206     O2208   1.907       .  S
Zn2206     O2211   2.036       .  S
Zn2206     O2214   2.051       .  S
Zn2206     O2217   2.050       .  S
Zn2207     O2208   1.907       .  S
Zn2207     O2215   2.032       .  S
Zn2207     O2218   2.034       .  S
Zn2207     O2219   2.029       .  S
O2209      C2221   1.277       .  A
O2210      C2222   1.263       .  A
O2211      C2223   1.280       .  A
O2212      C2221   1.262       .  A
O2213      C2223   1.280       .  A
O2214      C2222   1.278       .  A
O2215      C2224   1.279       .  A
O2216      C2225   1.263       .  A
O2217      C2224   1.281       .  A
O2218      C2225   1.276       .  A
O2219      C2226   1.279       .  A
O2220      C2226   1.279       .  A
C2221      C2276   1.469       .  S
C2222      C2300   1.467       .  S
C2223      C2244   1.473       .  S
C2224      C2246   1.478       .  S
C2225      C2288   1.466       .  S
C2226      C2245   1.472       .  S
Zn2227     O2538   2.034       .  S
Zn2227     O2243   2.019       .  S
Zn2228     O2231   1.978   1_655  S
Zn2228     O2535   2.027       .  S
Zn2228     O2235   2.029       .  S
Zn2228     O2239   2.024       .  S
Zn2229     O2234   2.031       .  S
Zn2229     O2240   2.010       .  S
Zn2230     O2231   1.975   1_556  S
Zn2230     O2241   2.089   1_455  S
O2232      C2244   1.274       .  A
O2233      C2245   1.275       .  A
O2234      C2246   1.274       .  A
O2235      C2244   1.275       .  A
O2236      C2246   1.275       .  A
O2237      C2245   1.274       .  A
O2238      C2247   1.283       .  A
O2239      C2248   1.273   1_554  A
O2240      C2247   1.271   1_554  A
O2241      C2248   1.283       .  A
O2242      C2249   1.283       .  A
O2243      C2249   1.272   1_554  A
Zn2250     O2259   2.013       .  S
Zn2251     O2254   1.986       .  S
Zn2251     O2256   2.025       .  S
Zn2251     O2258   2.041       .  S
Zn2252     O2254   1.979       .  S
Zn2252     O2559   2.086       .  S
Zn2252     O2260   2.083       .  S
Zn2253     O2261   2.018       .  S
Zn2253     O2265   2.049       .  S
O2254     Zn2552   1.985       .  S
O2255     Zn2552   2.041       .  S
O2255      C2267   1.276       .  A
O2256      C2268   1.272       .  A
O2257      C2269   1.283       .  A
O2258      C2267   1.276       .  A
O2259      C2269   1.271       .  A
O2260      C2268   1.283       .  A
O2261      C2270   1.272       .  A
O2262      C2271   1.276       .  A
O2263      C2270   1.283       .  A
O2264     Zn2555   2.040       .  S
O2264      C2271   1.275       .  A
O2265      C2272   1.276       .  A
O2266      C2272   1.276       .  A
C2273      C2274   1.401       .  A
C2273      C2278   1.403       .  A
C2274      C2275   1.392       .  A
C2274      H2279   1.084       .  S
C2277      C2278   1.401       .  A
C2278      O2282   1.371       .  S
O2282      H2283   0.992       .  S
C2285      C2286   1.400       .  A
C2285      C2290   1.402       .  A
C2286      C2287   1.388       .  A
C2286      H2291   1.084       .  S
C2287      C2590   1.406       .  A
C2287      O2292   1.372       .  S
C2289      C2590   1.408       .  A
C2289      C2290   1.400       .  A
C2289      H2595   1.084       .  S
C2290      O2294   1.371       .  S
O2292      H2296   0.992       .  S
O2294      H2295   0.992       .  S
C2297      C2298   1.401       .  A
C2297      C2302   1.403       .  A
C2298      C2299   1.390       .  A
C2298      H2303   1.084       .  S
C2299      C2300   1.406       .  A
C2299      O2304   1.372       .  S
C2300      C2301   1.407       .  A
C2301      C2302   1.401       .  A
C2301      H2305   1.084       .  S
C2302      O2306   1.371       .  S
O2304      H2308   0.992       .  S
O2306      H2307   0.992       .  S
C2310      C2611   1.403       .  A
C2310      C2311   1.393       .  A
C2310      H2617   1.084       .  S
C2311      C2312   1.405       .  A
C2311      O2316   1.370       .  S
C2312      C2313   1.397       .  A
C2313      C2314   1.400       .  A
C2313      H2317   1.084       .  S
C2314      C2611   1.416       .  A
C2314      O2318   1.372       .  S
O2316      H2320   0.991       .  S
O2318      H2319   0.992       .  S
C2321      C2322   1.401       .  A
C2321      C2326   1.402       .  A
C2322      H2327   1.083       .  S
C2323      C2324   1.408   1_455  A
C2323      O2328   1.372       .  S
C2325      C2326   1.400       .  A
C2325      H2329   1.084       .  S
C2326      O2330   1.373       .  S
O2328      H2332   0.992       .  S
O2330      H2331   0.991       .  S
C2333      C2334   1.402       .  A
C2333      C2338   1.401       .  A
C2334      C2335   1.391       .  A
C2334      H2339   1.082       .  S
C2335      C2336   1.405       .  A
C2335      O2340   1.372       .  S
C2336      C2337   1.408       .  A
C2337      C2338   1.397       .  A
C2337      H2341   1.084       .  S
C2338      O2342   1.371       .  S
O2340      H2344   0.992       .  S
O2342      H2343   0.991       .  S
C2345      C2346   1.400       .  A
C2345      C2350   1.409       .  A
C2346      H2351   1.082       .  S
C2347      C2348   1.414       .  A
C2347      O2352   1.372       .  S
C2349      C2350   1.390       .  A
C2349      H2353   1.084       .  S
C2350      O2354   1.369       .  S
O2352      H2356   0.992       .  S
O2354      H2355   0.992       .  S
C2357      C2358   1.399       .  A
C2357      C2362   1.404       .  A
C2358      H2363   1.081       .  S
C2359      C2660   1.389       .  A
C2359      C2360   1.409       .  A
C2359      O2364   1.372       .  S
C2360      C2663   1.410       .  A
C2361      C2362   1.402       .  A
C2361      H2365   1.083       .  S
C2362      O2366   1.373       .  S
O2364      H2368   0.992       .  S
O2366      H2367   0.991       .  S
C2369      C2370   1.397       .  A
C2369      C2374   1.404       .  A
C2370      C2371   1.400       .  A
C2370      H2375   1.084       .  S
C2371      C2372   1.417       .  A
C2371      O2376   1.372       .  S
C2372      C2373   1.405       .  A
C2373      C2374   1.397       .  A
C2373      H2377   1.083       .  S
C2374      O2378   1.373       .  S
O2376      H2380   0.992       .  S
O2378      H2379   0.991       .  S
C2381      C2382   1.406       .  A
C2382      H2387   1.083       .  S
C2383      C2384   1.402       .  A
C2383      O2388   1.371       .  S
C2384      C2385   1.398       .  A
C2385      C2386   1.399       .  A
C2385      H2389   1.083       .  S
C2386      O2390   1.372   1_655  S
O2390      H2391   0.992   1_455  S
C2393      C2394   1.398       .  A
C2393      C2398   1.403       .  A
C2394      C2395   1.389       .  A
C2394      H2399   1.079       .  S
C2395      O2400   1.372       .  S
C2396      C2697   1.410       .  A
C2396      C2397   1.411       .  A
C2397      C2700   1.405       .  A
C2397      H2401   1.083       .  S
C2398      O2402   1.374       .  S
O2400      H2404   0.992       .  S
H2403      O2704   0.991       .  S
C2405      C2406   1.412       .  A
C2405      C2410   1.408       .  A
C2406      C2407   1.401       .  A
C2406      H2411   1.083       .  S
C2407      C2408   1.401       .  A
C2407      O2412   1.370       .  S
C2408      C2409   1.400       .  A
C2409      C2410   1.391       .  A
C2409      H2413   1.079       .  S
C2410      O2414   1.372       .  S
O2412      H2416   0.992       .  S
O2414      H2415   0.992       .  S
Zn2417     O2421   1.964       .  S
Zn2417     O2422   1.989       .  S
Zn2417     O2426   2.014       .  S
Zn2417     O2433   2.009       .  S
Zn2418     O2421   1.954       .  S
Zn2418     O2423   2.016       .  S
Zn2418     O2425   1.992       .  S
Zn2418     O2429   1.990       .  S
Zn2419     O2421   1.957       .  S
Zn2419     O2424   2.081       .  S
Zn2419     O2427   2.087       .  S
Zn2419     O2430   2.088       .  S
Zn2420     O2421   1.950       .  S
Zn2420     O2428   1.998       .  S
Zn2420     O2431   1.987       .  S
Zn2420     O2432   1.968       .  S
O2422      C2434   1.271       .  A
O2423      C2435   1.273       .  A
O2424      C2436   1.283       .  A
O2425      C2434   1.269       .  A
O2426      C2436   1.274       .  A
O2427      C2435   1.283       .  A
O2428      C2437   1.270       .  A
O2429      C2438   1.270       .  A
O2430      C2437   1.283       .  A
O2431      C2438   1.268       .  A
O2432      C2439   1.267       .  A
O2433      C2439   1.270       .  A
C2434      C2683   1.481       .  S
C2435      C2574   1.478       .  S
C2436      C2573   1.474       .  S
C2437      C2569   1.473       .  S
C2438      C2707   1.478       .  S
C2439      C2698   1.479       .  S
C2440      H2441   1.113       .  S
C2440      C2446   1.528       .  S
C2440      C2445   1.526       .  S
C2440      C2444   1.527       .  S
C2442      H2443   1.112       .  S
C2442      C2448   1.527       .  S
C2442      C2447   1.528       .  S
C2442      C2449   1.534       .  S
C2444      C2447   1.369       .  D
C2444      C2686   1.462       .  S
C2445      C2448   1.367       .  D
C2445      C2710   1.468       .  S
C2446      C2449   1.367       .  D
C2446      C2695   1.469       .  S
C2447      C2647   1.475       .  S
C2448      C2671   1.465       .  S
C2449      C2659   1.467       .  S
Zn2450     O2454   1.955       .  S
Zn2450     O2455   1.990       .  S
Zn2450     O2459   1.962       .  S
Zn2450     O2466   2.010       .  S
Zn2451     O2454   1.954       .  S
Zn2451     O2456   1.989       .  S
Zn2451     O2458   1.979       .  S
Zn2451     O2462   2.005       .  S
Zn2452     O2454   1.964       .  S
Zn2452     O2457   2.002       .  S
Zn2452     O2460   1.997       .  S
Zn2452     O2463   2.034       .  S
Zn2453     O2454   1.948       .  S
Zn2453     O2461   2.090       .  S
Zn2453     O2464   2.089       .  S
Zn2453     O2465   2.097       .  S
O2455      C2467   1.267       .  A
O2456      C2468   1.268       .  A
O2457      C2469   1.270       .  A
O2458      C2467   1.269       .  A
O2459      C2469   1.267       .  A
O2460      C2468   1.271       .  A
O2461      C2470   1.286       .  A
O2462      C2471   1.272       .  A
O2463      C2470   1.277       .  A
O2464      C2471   1.285       .  A
O2465      C2472   1.285       .  A
O2466      C2472   1.272       .  A
C2467      C2650   1.470       .  S
C2468      C2674   1.483       .  S
C2469      C2662   1.474       .  S
C2470      C2550   1.490       .  S
C2471      C2549   1.483       .  S
C2472      C2551   1.487       .  S
Zn2473     O2477   1.965       .  S
Zn2473     O2478   1.997       .  S
Zn2473     O2482   1.986       .  S
Zn2473     O2489   2.019       .  S
Zn2474     O2477   1.959       .  S
Zn2474     O2479   1.987       .  S
Zn2474     O2481   1.977       .  S
Zn2474     O2485   2.017       .  S
Zn2475     O2477   1.960       .  S
Zn2475     O2480   1.997       .  S
Zn2475     O2483   1.969       .  S
Zn2475     O2486   2.009       .  S
Zn2476     O2477   1.950       .  S
Zn2476     O2484   2.094       .  S
Zn2476     O2487   2.096       .  S
Zn2476     O2488   2.088       .  S
O2478      C2490   1.270       .  A
O2479      C2491   1.269       .  A
O2480      C2492   1.269       .  A
O2481      C2490   1.268       .  A
O2482      C2492   1.269       .  A
O2483      C2491   1.267       .  A
O2484      C2493   1.286       .  A
O2485      C2494   1.273       .  A
O2486      C2493   1.272       .  A
O2487      C2494   1.285       .  A
O2488      C2495   1.286       .  A
O2489      C2495   1.274       .  A
C2490      C2626   1.474       .  S
C2491      C2638   1.467       .  S
C2492      C2611   1.479       .  S
C2493      C2572   1.486       .  S
C2494      C2570   1.489       .  S
C2495      C2571   1.486       .  S
C2496      H2497   1.113       .  S
C2496      C2502   1.526       .  S
C2496      C2501   1.524       .  S
C2496      C2500   1.527       .  S
C2498      H2499   1.113       .  S
C2498      C2504   1.526       .  S
C2498      C2503   1.526       .  S
C2498      C2505   1.524       .  S
C2500      C2503   1.368       .  D
C2500      C2623   1.464       .  S
C2501      C2504   1.366       .  D
C2501      C2614   1.465       .  S
C2502      C2505   1.367       .  D
C2502      C2635   1.463       .  S
C2503      C2575   1.467       .  S
C2504      C2587   1.463       .  S
C2505      C2599   1.464       .  S
Zn2506     O2510   1.909       .  S
Zn2506     O2511   2.053       .  S
Zn2506     O2515   2.036       .  S
Zn2506     O2522   2.033       .  S
Zn2507     O2510   1.872       .  S
Zn2507     O2512   1.958       .  S
Zn2507     O2514   1.959       .  S
Zn2507     O2518   1.955       .  S
Zn2508     O2510   1.907       .  S
Zn2508     O2513   2.036       .  S
Zn2508     O2516   2.051       .  S
Zn2508     O2519   2.050       .  S
Zn2509     O2510   1.908       .  S
Zn2509     O2517   2.032       .  S
Zn2509     O2520   2.034       .  S
Zn2509     O2521   2.029       .  S
O2511      C2523   1.277       .  A
O2512      C2524   1.263       .  A
O2513      C2525   1.280       .  A
O2514      C2523   1.262       .  A
O2515      C2525   1.280       .  A
O2516      C2524   1.278       .  A
O2517      C2526   1.279       .  A
O2518      C2527   1.263       .  A
O2519      C2526   1.281       .  A
O2520      C2527   1.276       .  A
O2521      C2528   1.279       .  A
O2522      C2528   1.279       .  A
C2523      C2578   1.469       .  S
C2524      C2602   1.467       .  S
C2525      C2546   1.473       .  S
C2526      C2548   1.478       .  S
C2527      C2590   1.466       .  S
C2528      C2547   1.472       .  S
Zn2529     O2545   2.020       .  S
Zn2530     O2533   1.978   1_665  S
Zn2530     O2537   2.029       .  S
Zn2530     O2541   2.024       .  S
Zn2531     O2536   2.031       .  S
Zn2531     O2542   2.010       .  S
Zn2532     O2533   1.975   1_556  S
Zn2532     O2543   2.089   1_445  S
O2534      C2546   1.275       .  A
O2535      C2547   1.275       .  A
O2536      C2548   1.274       .  A
O2537      C2546   1.275       .  A
O2538      C2548   1.275       .  A
O2539      C2547   1.274       .  A
O2540      C2549   1.283       .  A
O2541      C2550   1.273   1_554  A
O2542      C2549   1.271   1_554  A
O2543      C2550   1.283       .  A
O2544      C2551   1.283       .  A
O2545      C2551   1.272   1_554  A
Zn2552     O2561   2.013       .  S
Zn2553     O2556   1.986       .  S
Zn2553     O2558   2.025       .  S
Zn2553     O2560   2.042       .  S
Zn2554     O2556   1.979       .  S
Zn2554     O2562   2.083       .  S
Zn2555     O2563   2.018       .  S
Zn2555     O2567   2.048       .  S
O2557      C2569   1.276       .  A
O2558      C2570   1.272       .  A
O2559      C2571   1.283       .  A
O2560      C2569   1.276       .  A
O2561      C2571   1.271       .  A
O2562      C2570   1.283       .  A
O2563      C2572   1.272       .  A
O2564      C2573   1.276       .  A
O2565      C2572   1.283       .  A
O2566      C2573   1.275       .  A
O2567      C2574   1.276       .  A
O2568      C2574   1.276       .  A
C2575      C2576   1.401       .  A
C2575      C2580   1.403       .  A
C2576      C2577   1.392       .  A
C2576      H2581   1.084       .  S
C2579      C2580   1.401       .  A
C2580      O2584   1.371       .  S
O2584      H2585   0.992       .  S
C2587      C2588   1.400       .  A
C2587      C2592   1.402       .  A
C2588      C2589   1.388       .  A
C2588      H2593   1.084       .  S
C2589      O2594   1.372       .  S
C2591      C2592   1.400   1_545  A
C2592      O2596   1.371       .  S
O2594      H2598   0.992       .  S
O2596      H2597   0.992   1_565  S
C2599      C2600   1.401       .  A
C2599      C2604   1.403       .  A
C2600      C2601   1.390       .  A
C2600      H2605   1.084       .  S
C2601      C2602   1.406       .  A
C2601      O2606   1.372       .  S
C2602      C2603   1.407       .  A
C2603      C2604   1.401       .  A
C2603      H2607   1.084       .  S
C2604      O2608   1.371       .  S
O2606      H2610   0.992       .  S
O2608      H2609   0.992       .  S
C2612      C2613   1.393       .  A
C2613      C2614   1.405       .  A
C2613      O2618   1.370       .  S
C2614      C2615   1.397       .  A
C2615      C2616   1.400   1_565  A
C2615      H2619   1.084       .  S
C2616      O2620   1.372       .  S
O2618      H2622   0.991       .  S
O2620      H2621   0.992       .  S
C2623      C2624   1.401       .  A
C2623      C2628   1.402       .  A
C2624      H2629   1.083       .  S
C2625      C2626   1.408   1_455  A
C2625      O2630   1.372       .  S
C2627      C2628   1.400       .  A
C2627      H2631   1.084       .  S
C2628      O2632   1.373       .  S
O2630      H2634   0.992       .  S
O2632      H2633   0.991       .  S
C2635      C2636   1.402       .  A
C2635      C2640   1.401       .  A
C2636      C2637   1.391       .  A
C2636      H2641   1.082       .  S
C2637      C2638   1.405       .  A
C2637      O2642   1.372       .  S
C2638      C2639   1.408       .  A
C2639      C2640   1.397       .  A
C2639      H2643   1.084       .  S
C2640      O2644   1.371       .  S
O2642      H2646   0.992       .  S
O2644      H2645   0.991       .  S
C2647      C2648   1.400       .  A
C2647      C2652   1.409       .  A
C2648      H2653   1.082       .  S
C2649      C2650   1.414       .  A
C2649      O2654   1.372       .  S
C2651      C2652   1.390       .  A
C2651      H2655   1.084       .  S
C2652      O2656   1.369       .  S
O2654      H2658   0.992       .  S
O2656      H2657   0.992       .  S
C2659      C2660   1.399       .  A
C2659      C2664   1.404       .  A
C2660      H2665   1.081       .  S
C2661      C2662   1.409   1_545  A
C2661      O2666   1.372       .  S
C2663      C2664   1.402       .  A
C2663      H2667   1.083       .  S
C2664      O2668   1.373       .  S
O2666      H2670   0.992       .  S
O2668      H2669   0.991       .  S
C2671      C2672   1.397       .  A
C2671      C2676   1.404       .  A
C2672      C2673   1.400       .  A
C2672      H2677   1.084       .  S
C2673      C2674   1.417       .  A
C2673      O2678   1.372       .  S
C2674      C2675   1.405       .  A
C2675      C2676   1.397       .  A
C2675      H2679   1.083       .  S
C2676      O2680   1.373       .  S
O2678      H2682   0.992       .  S
O2680      H2681   0.991       .  S
C2683      C2684   1.406       .  A
C2684      H2689   1.083       .  S
C2685      C2686   1.402       .  A
C2685      O2690   1.371       .  S
C2686      C2687   1.398       .  A
C2687      C2688   1.399       .  A
C2687      H2691   1.083       .  S
C2688      O2692   1.371   1_655  S
O2692      H2693   0.992   1_455  S
C2695      C2696   1.398       .  A
C2695      C2700   1.403       .  A
C2696      C2697   1.389       .  A
C2696      H2701   1.079       .  S
C2697      O2702   1.372       .  S
C2698      C2699   1.411       .  A
C2699      H2703   1.083       .  S
C2700      O2704   1.374       .  S
O2702      H2706   0.992       .  S
C2707      C2708   1.412       .  A
C2707      C2712   1.408       .  A
C2708      C2709   1.401       .  A
C2708      H2713   1.083       .  S
C2709      C2710   1.401       .  A
C2709      O2714   1.370       .  S
C2710      C2711   1.400       .  A
C2711      C2712   1.391       .  A
C2711      H2715   1.079       .  S
C2712      O2716   1.372       .  S
O2714      H2718   0.992       .  S
O2716      H2717   0.992       .  S
