geometry optimzed in LAMMPS
_audit_creation_date              2020-11-30 
_audit_creation_method            'lammps2cif' 
_symmetry_space_group_name_H-M    'P1' 
_symmetry_Int_Tables_number       1 
_symmetry_cell_setting            triclinic 
loop_ 
_symmetry_equiv_pos_as_xyz 
  x,y,z 
_cell_length_a                    48.57958975 
_cell_length_b                    47.55782298709212 
_cell_length_c                    45.186761151624566 
_cell_angle_alpha                 89.99867622968829 
_cell_angle_beta                  90.55224799079537 
_cell_angle_gamma                 89.6104835932902 
loop_ 
_atom_site_label 
_atom_site_type_symbol 
_atom_site_fract_x 
_atom_site_fract_y 
_atom_site_fract_z 
_atom_site_charge 
N1          N  0.96565143  0.99834248  0.26020448    -0.36500
N2          N  0.00774968  0.04112673  0.25495038    -0.57100
N3          N  0.05009889  0.99788466  0.26198523    -0.36500
N4          N  0.00802921  0.95492176  0.26446864    -0.57100
C5          C  0.95038730  0.02078752  0.25136507     0.27000
C6          C  0.95078551  0.97505066  0.25401542     0.27000
C7          C  0.06600857  0.01995904  0.25453012     0.27000
C8          C  0.06617974  0.97458916  0.26091746     0.27000
C9          C  0.98554552  0.05821866  0.25698084     0.35700
C10         C  0.03008057  0.05787824  0.25576571     0.35700
C11         C  0.98565814  0.93866526  0.26807521     0.35700
C12         C  0.03016388  0.93855517  0.27061894     0.35700
C13         C  0.92546084  0.01172749  0.23978745    -0.21800
C14         C  0.92579118  0.98288487  0.24123377    -0.21800
C15         C  0.09278891  0.01067275  0.24998130    -0.21800
C16         C  0.09290300  0.98217810  0.25404513    -0.21800
C17         C  0.99378259  0.08600591  0.25905565    -0.22900
C18         C  0.02200790  0.08580977  0.25796389    -0.22900
C19         C  0.99356486  0.91186286  0.27688289    -0.22900
C20         C  0.02178989  0.91171767  0.27823337    -0.22900
C21         C  0.95800046  0.04931590  0.25403161    -0.18200
C22         C  0.95847341  0.94697550  0.26084904    -0.18200
C23         C  0.05772978  0.94661601  0.26622841    -0.18200
C24         C  0.05756540  0.04845916  0.25291198    -0.18200
H25         H  0.90885685  0.02456215  0.23089475     0.14700
H26         H  0.90939782  0.96924699  0.23374047     0.14700
H27         H  0.11065376  0.02305252  0.24459772     0.14700
H28         H  0.11084049  0.96869232  0.25229490     0.14700
H29         H  0.98081471  0.10455067  0.26037303     0.13000
H30         H  0.03503814  0.10416971  0.25848492     0.13000
H31         H  0.98044072  0.89403825  0.28110280     0.13000
H32         H  0.03460589  0.89370126  0.28358128     0.13000
H33         H  0.98372334  0.99912635  0.27264911     0.26200
H34         H  0.03004223  0.99889683  0.26940553     0.26200
O35         O  0.21438248  0.28662096  0.23702466    -0.80800
O36         O  0.25921657  0.19183062  0.15837226    -0.65500
O37         O  0.24506045  0.23843343  0.22525848    -1.12100
C38         C  0.31357724  0.29621615  0.18282388     1.06100
O39         O  0.30358770  0.19497924  0.16806784    -0.78700
O40         O  0.32434191  0.22857280  0.20909619    -0.66300
Ni41       Ni  0.20866187  0.24683922  0.23761458     1.34900
C42         C  0.31729633  0.23858769  0.23385370     0.84800
O43         O  0.22647860  0.18551364  0.20545839    -0.79300
O44         O  0.20021171  0.20771067  0.23915485    -0.89500
C45         C  0.28377945  0.18380214  0.15402752     0.84400
O46         O  0.19197343  0.25007057  0.19966726    -0.67700
O47         O  0.32204065  0.27324275  0.17130130    -0.87000
C48         C  0.19935423  0.24297331  0.17390926     0.85200
C49         C  0.20730350  0.18588749  0.22461657     1.06800
H50         H  0.26649002  0.25319829  0.16201674     0.38600
O51         O  0.27431065  0.24440546  0.17941089    -1.09700
O52         O  0.29670467  0.25473987  0.23705883    -0.66300
Ni53       Ni  0.26775013  0.26876742  0.21211049     1.26300
O54         O  0.22172647  0.23019431  0.16843620    -0.66600
O55         O  0.29163869  0.29804531  0.19814015    -0.78900
C56         C  0.23400506  0.29862967  0.25052664     0.84600
O57         O  0.25870420  0.29203130  0.24493707    -0.66000
Ni58       Ni  0.31117877  0.23454093  0.17001339     1.27400
Ni59       Ni  0.25082251  0.21459016  0.19200517     1.26100
H60         H  0.25389934  0.22936373  0.24204066     0.39100
O61         O  0.70528793  0.20618507  0.23915978    -0.80800
O62         O  0.80468545  0.24404063  0.16556264    -0.65500
O63         O  0.75687372  0.23141928  0.22977054    -1.12100
C64         C  0.71001853  0.31122144  0.19217966     1.06100
O65         O  0.80728781  0.28974295  0.17436581    -0.78700
O66         O  0.77800800  0.31156496  0.21968804    -0.66300
Ni67       Ni  0.74345543  0.19453044  0.23802554     1.34900
C68         C  0.76571329  0.30528104  0.24343330     0.84800
O69         O  0.80618034  0.20774546  0.21012499    -0.79300
O70         O  0.78048164  0.17970936  0.23875237    -0.89500
C71         C  0.81615100  0.26754096  0.16181843     0.84400
O72         O  0.73789742  0.18181291  0.19825386    -0.67700
O73         O  0.73339964  0.31893706  0.18255978    -0.87000
C74         C  0.74752610  0.18962491  0.17358522     0.85200
C75         C  0.80321467  0.18629461  0.22667703     1.06800
H76         H  0.74634354  0.25980683  0.16780367     0.38600
O77         O  0.75561308  0.26536534  0.18586524    -1.09700
O78         O  0.74750293  0.28621410  0.24463200    -0.66300
Ni79       Ni  0.73099609  0.25954416  0.21772251     1.26300
O80         O  0.76339758  0.21060002  0.17096822    -0.66600
O81         O  0.70567884  0.28775044  0.20469608    -0.78900
C82         C  0.69602462  0.22767174  0.25264159     0.84600
O83         O  0.70698760  0.25150445  0.24933098    -0.66000
Ni84       Ni  0.76969787  0.30237169  0.17940926     1.27400
Ni85       Ni  0.78109438  0.23661863  0.19753014     1.26100
H86         H  0.76632633  0.23768190  0.24747115     0.39100
O87         O  0.80067627  0.71285949  0.17898016    -0.80800
O88         O  0.70459412  0.75284355  0.25864220    -0.65500
O89         O  0.75033639  0.73979639  0.19237761    -1.12100
C90         C  0.80132465  0.81484109  0.23477109     1.06100
O91         O  0.70280895  0.79828428  0.24825746    -0.78700
O92         O  0.73506594  0.82280412  0.20630801    -0.66300
Ni93       Ni  0.76246239  0.70267464  0.18234886     1.34900
C94         C  0.74615965  0.81610368  0.18191293     0.84800
O95         O  0.70089109  0.71701992  0.21364125    -0.79300
O96         O  0.72542338  0.68871048  0.18387050    -0.89500
C97         C  0.69344320  0.77681506  0.26165198     0.84400
O98         O  0.76989015  0.68916839  0.22139085    -0.67700
O99         O  0.77839511  0.82286814  0.24574611    -0.87000
C100        C  0.76086718  0.69599839  0.24667990     0.85200
C101        C  0.70328674  0.69537344  0.19720695     1.06800
H102        H  0.76328846  0.76544896  0.25490738     0.38600
O103        O  0.75372424  0.77203695  0.23736519    -1.09700
O104        O  0.76182690  0.79478479  0.17929034    -0.66300
Ni105      Ni  0.77743856  0.76638759  0.20488393     1.26300
O106        O  0.74511220  0.71713983  0.25076972    -0.66600
O107        O  0.80399234  0.79284709  0.21887548    -0.78900
C108        C  0.81057277  0.73489453  0.16739379     0.84600
O109        O  0.80039586  0.75886885  0.17242144    -0.66000
Ni110      Ni  0.74107537  0.80919851  0.24593779     1.27400
Ni111      Ni  0.72715386  0.74478703  0.22576724     1.26100
H112        H  0.74061941  0.74715322  0.17525882     0.39100
O113        O  0.29513476  0.80164798  0.17903837    -0.80800
O114        O  0.26262316  0.69822386  0.24643943    -0.65500
O115        O  0.27119074  0.74974092  0.18354897    -1.12100
C116        C  0.19773207  0.79691035  0.23214336     1.06100
O117        O  0.21832150  0.69760376  0.23600729    -0.78700
O118        O  0.19056453  0.73336464  0.20176416    -0.66300
Ni119      Ni  0.30633798  0.76329574  0.17308984     1.34900
C120        C  0.19693641  0.74223169  0.17628804     0.84800
O121        O  0.29566808  0.69938543  0.19957820    -0.79300
O122        O  0.31956558  0.72546594  0.16714005    -0.89500
C123        C  0.23916191  0.68723833  0.24927922     0.84400
O124        O  0.32321151  0.76462865  0.21111988    -0.67700
O125        O  0.19287407  0.77359832  0.24505243    -0.87000
C126        C  0.31598262  0.75624571  0.23644530     0.85200
C127        C  0.31462919  0.70233124  0.18047090     1.06800
H128        H  0.24856715  0.75902790  0.24676686     0.38600
O129        O  0.24136298  0.74981914  0.22930150    -1.09700
O130        O  0.21737047  0.75829939  0.17190175    -0.66300
Ni131      Ni  0.24428479  0.77570143  0.19777683     1.26300
O132        O  0.29488395  0.74126974  0.24059362    -0.66600
O133        O  0.21665182  0.80043953  0.21307910    -0.78900
C134        C  0.27473761  0.81293191  0.16581702     0.84600
O135        O  0.25103131  0.80194536  0.16701348    -0.66000
Ni136      Ni  0.20658863  0.73595264  0.24016854     1.27400
Ni137      Ni  0.26824428  0.72395482  0.21502104     1.26100
H138        H  0.26400957  0.74058722  0.16604183     0.39100
N139        N  0.33856624  0.94775596  0.96079075    -0.36500
N140        N  0.34113024  0.98240878  0.90860675    -0.57100
N141        N  0.34078597  0.03182668  0.94768072    -0.36500
N142        N  0.34160549  0.99668883  0.00002651    -0.57100
C143        C  0.34196100  0.92768784  0.93997101     0.27000
C144        C  0.34196592  0.93533074  0.98739756     0.27000
C145        C  0.34449428  0.04410336  0.92112555     0.27000
C146        C  0.34544988  0.05150525  0.96874647     0.27000
C147        C  0.33461905  0.95767692  0.89559031     0.35700
C148        C  0.33533922  0.00265480  0.88849291     0.35700
C149        C  0.33254064  0.97696724  0.01898572     0.35700
C150        C  0.33474463  0.02170300  0.01209492     0.35700
C151        C  0.34802883  0.90219659  0.95350971    -0.21800
C152        C  0.34813678  0.90705613  0.98352847    -0.21800
C153        C  0.35190617  0.07197710  0.92530437    -0.21800
C154        C  0.35267703  0.07660021  0.95542966    -0.21800
C155        C  0.32601484  0.96212030  0.86664553    -0.22900
C156        C  0.32642045  0.99063542  0.86215316    -0.22900
C157        C  0.32046291  0.98943982  0.04340188    -0.22900
C158        C  0.32187608  0.01780785  0.03905372    -0.22900
C159        C  0.33595475  0.93114252  0.90959622    -0.18200
C160        C  0.33502593  0.94778146  0.01464720    -0.18200
C161        C  0.33989925  0.04811650  0.99918057    -0.18200
C162        C  0.33771493  0.03187777  0.89349236    -0.18200
H163        H  0.35089115  0.88198861  0.94292205     0.14700
H164        H  0.35094033  0.89130039  0.00060468     0.14700
H165        H  0.35543187  0.08760791  0.90837188     0.14700
H166        H  0.35683952  0.09645678  0.96623133     0.14700
H167        H  0.31958174  0.94651205  0.85062489     0.13000
H168        H  0.32037866  0.00131517  0.84193620     0.13000
H169        H  0.31103319  0.97920929  0.06210483     0.13000
H170        H  0.31360002  0.03368225  0.05371133     0.13000
H171        H  0.32950535  0.96729205  0.95740052     0.26200
H172        H  0.33123912  0.01267712  0.95087520     0.26200
N173        N  0.97253576  0.27681458  0.96018844    -0.36500
N174        N  0.01493494  0.28034126  0.00512411    -0.57100
N175        N  0.05601245  0.27593348  0.95894965    -0.36500
N176        N  0.01381749  0.27483773  0.91401247    -0.57100
C177        C  0.95720495  0.28285370  0.98419016     0.27000
C178        C  0.95646342  0.28125059  0.93609111     0.27000
C179        C  0.07157179  0.28359111  0.98243632     0.27000
C180        C  0.07114747  0.28055198  0.93455081     0.27000
C181        C  0.99320296  0.27503352  0.02252525     0.35700
C182        C  0.03748891  0.27496174  0.02177716     0.35700
C183        C  0.99116645  0.26995267  0.89736554     0.35700
C184        C  0.03571376  0.26899231  0.89682809     0.35700
C185        C  0.93093718  0.29090028  0.97536060    -0.21800
C186        C  0.93043800  0.28989309  0.94498486    -0.21800
C187        C  0.09683412  0.29330975  0.97293517    -0.21800
C188        C  0.09659471  0.29132540  0.94260953    -0.21800
C189        C  0.00189633  0.26684943  0.05052798    -0.22900
C190        C  0.03005080  0.26650649  0.04997623    -0.22900
C191        C  0.99872164  0.26130606  0.86923653    -0.22900
C192        C  0.02701259  0.26056255  0.86896117    -0.22900
C193        C  0.96562984  0.27876830  0.01378836    -0.18200
C194        C  0.96392749  0.27535943  0.90655517    -0.18200
C195        C  0.06333137  0.27326010  0.90547703    -0.18200
C196        C  0.06464082  0.27903549  0.01219976    -0.18200
H197        H  0.91372892  0.29631013  0.98934329     0.14700
H198        H  0.91262185  0.29431745  0.93117237     0.14700
H199        H  0.11389851  0.30040550  0.98651633     0.14700
H200        H  0.11340844  0.29672397  0.92817508     0.14700
H201        H  0.98930457  0.26153071  0.06932237     0.13000
H202        H  0.04341616  0.26069514  0.06829724     0.13000
H203        H  0.98531462  0.25644309  0.85069979     0.13000
H204        H  0.03970046  0.25503115  0.85025416     0.13000
H205        H  0.99153009  0.26672605  0.96039872     0.26200
H206        H  0.03793609  0.26442171  0.95986460     0.26200
N207        N  0.72219362  0.04377845  0.95492282    -0.36500
N208        N  0.72196940  0.00105686  0.00188348    -0.57100
N209        N  0.72233879  0.95767159  0.95734494    -0.36500
N210        N  0.71845943  0.00046432  0.91025484    -0.57100
C211        C  0.71723170  0.06000805  0.97888517     0.27000
C212        C  0.71671531  0.05960725  0.93062545     0.27000
C213        C  0.71841673  0.94188691  0.98190560     0.27000
C214        C  0.71551906  0.94169299  0.93368122     0.27000
C215        C  0.72691000  0.02429486  0.01827032     0.35700
C216        C  0.72803071  0.97873223  0.01943142     0.35700
C217        C  0.72387694  0.02269707  0.89257928     0.35700
C218        C  0.72314142  0.97717927  0.89387321     0.35700
C219        C  0.70852924  0.08648466  0.96970550    -0.21800
C220        C  0.70823468  0.08623717  0.93925495    -0.21800
C221        C  0.70898993  0.91554227  0.97375066    -0.21800
C222        C  0.70707180  0.91543967  0.94330938    -0.21800
C223        C  0.73582456  0.01667401  0.04641727    -0.22900
C224        C  0.73655297  0.98783766  0.04713700    -0.22900
C225        C  0.73172236  0.01349822  0.86479881    -0.22900
C226        C  0.73122631  0.98467438  0.86559902    -0.22900
C227        C  0.72240600  0.05231321  0.00870576    -0.18200
C228        C  0.72094197  0.05120055  0.90095091    -0.18200
C229        C  0.71926426  0.94923603  0.90366613    -0.18200
C230        C  0.72454895  0.95023672  0.01130068    -0.18200
H231        H  0.70333767  0.10430139  0.98352239     0.14700
H232        H  0.70269183  0.10377376  0.92508520     0.14700
H233        H  0.70425472  0.89812250  0.98820890     0.14700
H234        H  0.70071220  0.89783030  0.92975710     0.14700
H235        H  0.74129421  0.03044625  0.06457809     0.13000
H236        H  0.74260734  0.97505560  0.06594924     0.13000
H237        H  0.73740435  0.02617809  0.84596155     0.13000
H238        H  0.73644840  0.97083708  0.84745661     0.13000
H239        H  0.73202580  0.02433392  0.95517013     0.26200
H240        H  0.73242778  0.97682625  0.95648493     0.26200
N241        N  0.04570535  0.69349910  0.96639557    -0.36500
N242        N  0.00857260  0.70861355  0.01120176    -0.57100
N243        N  0.96359969  0.70498929  0.96803297    -0.36500
N244        N  0.00086558  0.68772222  0.92247350    -0.57100
C245        C  0.06184178  0.68984561  0.99067538     0.27000
C246        C  0.05730207  0.67885586  0.94421303     0.27000
C247        C  0.94991036  0.70440448  0.99385626     0.27000
C248        C  0.94599390  0.69616095  0.94666893     0.27000
C249        C  0.03214041  0.71487269  0.02568556     0.35700
C250        C  0.98799061  0.72008062  0.02688749     0.35700
C251        C  0.02315042  0.68994384  0.90503092     0.35700
C252        C  0.97896858  0.69603988  0.90588174     0.35700
C253        C  0.08374632  0.67224681  0.98403885    -0.21800
C254        C  0.08080668  0.66515956  0.95462491    -0.21800
C255        C  0.92329762  0.69485647  0.98887593    -0.21800
C256        C  0.92083202  0.68968754  0.95899306    -0.21800
C257        C  0.02657091  0.73071189  0.05069039    -0.22900
C258        C  0.99842951  0.73382773  0.05158994    -0.22900
C259        C  0.01533041  0.69970122  0.87721641    -0.22900
C260        C  0.98724507  0.70330769  0.87770083    -0.22900
C261        C  0.05802264  0.70377931  0.01786238    -0.18200
C262        C  0.05018643  0.68252922  0.91411124    -0.18200
C263        C  0.95163356  0.69660905  0.91612796    -0.18200
C264        C  0.96001982  0.71497484  0.02104430    -0.18200
H265        H  0.10045163  0.66584694  0.99861667     0.14700
H266        H  0.09512342  0.65264424  0.94188141     0.14700
H267        H  0.90705534  0.69264919  0.00491703     0.14700
H268        H  0.90247909  0.68258832  0.94754854     0.14700
H269        H  0.04111675  0.73843143  0.06700707     0.13000
H270        H  0.98694793  0.74434158  0.06881211     0.13000
H271        H  0.02839159  0.70425524  0.85860158     0.13000
H272        H  0.97451212  0.71105720  0.85964649     0.13000
H273        H  0.03035686  0.70869803  0.96365635     0.26200
H274        H  0.98255509  0.71445218  0.96457889     0.26200
O275        O  0.29048858  0.75776382  0.76919232    -0.80800
O276        O  0.25255309  0.71091191  0.65299172    -0.65500
O277        O  0.26437089  0.76227591  0.71609179    -1.12100
C278        C  0.19124138  0.71248617  0.76020071     1.06100
O279        O  0.20842509  0.72065380  0.65467510    -0.78700
O280        O  0.18463610  0.75245684  0.69605719    -0.66300
Ni281      Ni  0.30047572  0.76939642  0.73042783     1.34900
C282        C  0.19102737  0.77317250  0.71235730     0.84800
O283        O  0.28588127  0.75562457  0.66003877    -0.79300
O284        O  0.31144525  0.78138410  0.69189040    -0.89500
C285        C  0.22835248  0.70753250  0.64299697     0.84400
O286        O  0.31725484  0.73346519  0.72449754    -0.67700
O287        O  0.18362505  0.70709474  0.73367407    -0.87000
C288        C  0.31004188  0.71121066  0.71115161     0.85200
C289        C  0.30469233  0.77359821  0.66574828     1.06800
H290        H  0.24038517  0.70142080  0.71606979     0.38600
O291        O  0.23355367  0.71970370  0.71002144    -1.09700
O292        O  0.21091258  0.77228618  0.73094307    -0.66300
Ni293      Ni  0.23884166  0.74494006  0.74237510     1.26300
O294        O  0.28755709  0.70957953  0.69658998    -0.66600
O295        O  0.21285315  0.72637029  0.76687505    -0.78900
C296        C  0.27253452  0.77209586  0.78270084     0.84600
O297        O  0.24754842  0.77021650  0.77439977    -0.66000
Ni298      Ni  0.19725953  0.71435799  0.69470475     1.27400
Ni299      Ni  0.25975709  0.73677263  0.68431203     1.26100
H300        H  0.25688680  0.78020395  0.70977125     0.39100
N301        N  0.96440636  0.99008506  0.69803590    -0.36500
N302        N  0.00657777  0.03170223  0.70650154    -0.57100
N303        N  0.04890817  0.98601153  0.70821515    -0.36500
N304        N  0.00653410  0.94423118  0.70135922    -0.57100
C305        C  0.94839449  0.01322910  0.70260238     0.27000
C306        C  0.94820890  0.96727188  0.70138766     0.27000
C307        C  0.06543683  0.00863627  0.71055192     0.27000
C308        C  0.06517744  0.96267207  0.70832370     0.27000
C309        C  0.98498882  0.04961054  0.70281819     0.35700
C310        C  0.02957623  0.04752391  0.70671305     0.35700
C311        C  0.98376542  0.92850294  0.69733357     0.35700
C312        C  0.02847283  0.92648215  0.70070270     0.35700
C313        C  0.92168856  0.00498585  0.70828101    -0.21800
C314        C  0.92156937  0.97612980  0.70765885    -0.21800
C315        C  0.09263863  0.99954861  0.71258979    -0.21800
C316        C  0.09246007  0.97072828  0.71120326    -0.21800
C317        C  0.99424813  0.07700816  0.70120738    -0.22900
C318        C  0.02236110  0.07574478  0.70388000    -0.22900
C319        C  0.99127275  0.90047615  0.69407544    -0.22900
C320        C  0.01946195  0.89917718  0.69642258    -0.22900
C321        C  0.95694714  0.04169935  0.70170302    -0.18200
C322        C  0.95620267  0.93858914  0.69828068    -0.18200
C323        C  0.05646654  0.93435981  0.70462668    -0.18200
C324        C  0.05711614  0.03731839  0.70912534    -0.18200
H325        H  0.90413152  0.01836421  0.71288211     0.14700
H326        H  0.90376970  0.96314836  0.71162829     0.14700
H327        H  0.11096662  0.01228047  0.71411988     0.14700
H328        H  0.11058221  0.95738035  0.71144657     0.14700
H329        H  0.98207950  0.09598029  0.69839419     0.13000
H330        H  0.03589691  0.09371333  0.70358474     0.13000
H331        H  0.97784035  0.88266348  0.69080428     0.13000
H332        H  0.03177431  0.88017208  0.69536592     0.13000
H333        H  0.98439738  0.98976975  0.69019709     0.26200
H334        H  0.02781687  0.98688692  0.70594669     0.26200
O335        O  0.30034210  0.19066737  0.73419496    -0.80800
O336        O  0.25149260  0.29084970  0.66609478    -0.65500
O337        O  0.27123212  0.24188494  0.72930376    -1.12100
C338        C  0.19402874  0.19075407  0.70257351     1.06100
O339        O  0.20646329  0.28897093  0.67399294    -0.78700
O340        O  0.19713569  0.26392312  0.72607002    -0.66300
Ni341      Ni  0.30837915  0.23031165  0.73560457     1.34900
C342        C  0.20339551  0.24988715  0.74903129     0.84800
O343        O  0.28962850  0.29340250  0.70886803    -0.79300
O344        O  0.31914897  0.26895732  0.73797226    -0.89500
C345        C  0.22722921  0.30006411  0.66188087     0.84400
O346        O  0.31988128  0.22814952  0.69549783    -0.67700
O347        O  0.18380765  0.21484645  0.69660889    -0.87000
C348        C  0.30985023  0.23650439  0.67099870     0.85200
C349        C  0.31075020  0.29175851  0.72584809     1.06800
H350        H  0.23959504  0.23009817  0.66918139     0.38600
O351        O  0.23529621  0.23892498  0.68776855    -1.09700
O352        O  0.21992027  0.22894120  0.74839352    -0.66300
Ni353      Ni  0.24530616  0.21388659  0.71930268     1.26300
O354        O  0.28728316  0.25013591  0.66900433    -0.66600
O355        O  0.21923794  0.18649156  0.70837363    -0.78900
C356        C  0.28165208  0.17872557  0.74899524     0.84600
O357        O  0.25763430  0.18916056  0.74978943    -0.66000
Ni358      Ni  0.19777960  0.25137395  0.68615400     1.27400
Ni359      Ni  0.26239504  0.26651725  0.69749873     1.26100
H360        H  0.26553782  0.25107285  0.74736615     0.39100
O361        O  0.79968325  0.29362772  0.74828559    -0.80800
O362        O  0.71103746  0.25209914  0.65826202    -0.65500
O363        O  0.75181321  0.26525825  0.72847955    -1.12100
C364        C  0.80679995  0.18874569  0.69413698     1.06100
O365        O  0.71022227  0.20613082  0.66572734    -0.78700
O366        O  0.73700632  0.18426456  0.71312851    -0.66300
Ni367      Ni  0.76132154  0.30276889  0.74019988     1.34900
C368        C  0.74649749  0.19090280  0.73842496     0.84800
O369        O  0.70252546  0.28619854  0.70347297    -0.79300
O370        O  0.72364797  0.31565381  0.73498132    -0.89500
C371        C  0.70078640  0.22822956  0.65326098     0.84400
O372        O  0.77084406  0.31699093  0.70196958    -0.67700
O373        O  0.78480391  0.18080771  0.68092877    -0.87000
C374        C  0.76320457  0.30990367  0.67604701     0.85200
C375        C  0.70255114  0.30787742  0.72003986     1.06800
H376        H  0.76952507  0.23995269  0.66707798     0.38600
O377        O  0.75917906  0.23309930  0.68371366    -1.09700
O378        O  0.76320603  0.21099646  0.74232513    -0.66300
Ni379      Ni  0.78047283  0.23907404  0.71851735     1.26300
O380        O  0.74893533  0.28813931  0.67073405    -0.66600
O381        O  0.80858394  0.21205775  0.70809454    -0.78900
C382        C  0.80977229  0.27126150  0.75972942     0.84600
O383        O  0.80075556  0.24721213  0.75301975    -0.66000
Ni384      Ni  0.74796739  0.19552185  0.67435550     1.27400
Ni385      Ni  0.73089852  0.25968778  0.69331063     1.26100
H386        H  0.74126480  0.25762368  0.74457703     0.39100
O387        O  0.70005291  0.79129054  0.67513161    -0.80800
O388        O  0.79336827  0.74732578  0.75839702    -0.65500
O389        O  0.74974885  0.76279887  0.68960478    -1.12100
C390        C  0.69892357  0.68470347  0.72328292     1.06100
O391        O  0.79605284  0.70239194  0.74657549    -0.78700
O392        O  0.76762224  0.68204543  0.69925957    -0.66300
Ni393      Ni  0.73857648  0.80037953  0.67993058     1.34900
C394        C  0.75630980  0.68920517  0.67490713     0.84800
O395        O  0.79855229  0.78436375  0.71439069    -0.79300
O396        O  0.77599007  0.81328305  0.68296738    -0.89500
C397        C  0.80368971  0.72306759  0.76245567     0.84400
O398        O  0.73151449  0.81357037  0.71905525    -0.67700
O399        O  0.72182775  0.67621510  0.73427572    -0.87000
C400        C  0.73959497  0.80545471  0.74448494     0.85200
C401        C  0.79727997  0.80621687  0.69807391     1.06800
H402        H  0.73533493  0.73409933  0.75028628     0.38600
O403        O  0.74523554  0.72853455  0.73276635    -1.09700
O404        O  0.73859629  0.70892673  0.67295783    -0.66300
Ni405      Ni  0.72211303  0.73587951  0.69934354     1.26300
O406        O  0.75362018  0.78312491  0.74879322    -0.66600
O407        O  0.69556465  0.70831588  0.71027594    -0.78900
C408        C  0.68976636  0.77011705  0.66195780     0.84600
O409        O  0.69931365  0.74558261  0.66632701    -0.66000
Ni410      Ni  0.75841792  0.69104907  0.73935359     1.27400
Ni411      Ni  0.77206136  0.75629401  0.72397437     1.26100
H412        H  0.75996558  0.75595578  0.67279842     0.39100
N413        N  0.45226330  0.50015442  0.72610382    -0.36500
N414        N  0.49275010  0.45330920  0.73103842    -0.57100
N415        N  0.53687579  0.49334089  0.72715480    -0.36500
N416        N  0.49660207  0.54019273  0.72548677    -0.57100
C417        C  0.43612034  0.47912169  0.73602306     0.27000
C418        C  0.43786588  0.52453204  0.72908388     0.27000
C419        C  0.55206775  0.46934820  0.72905117     0.27000
C420        C  0.55427995  0.51531446  0.72979150     0.27000
C421        C  0.46907017  0.43861375  0.72988397     0.35700
C422        C  0.51356315  0.43473699  0.72638426     0.35700
C423        C  0.47558285  0.55827680  0.71958634     0.35700
C424        C  0.52012364  0.55506921  0.72324796     0.35700
C425        C  0.41117577  0.49036359  0.74530179    -0.21800
C426        C  0.41217878  0.51889775  0.74061415    -0.21800
C427        C  0.57964109  0.47634369  0.73217504    -0.21800
C428        C  0.58099367  0.50514743  0.73291602    -0.21800
C429        C  0.47494122  0.41044717  0.72452402    -0.22900
C430        C  0.50303216  0.40797741  0.72264942    -0.22900
C431        C  0.48581190  0.58477627  0.71368846    -0.22900
C432        C  0.51385665  0.58289848  0.71657059    -0.22900
C433        C  0.44236540  0.44988564  0.73507688    -0.18200
C434        C  0.44723823  0.55180746  0.72181820    -0.18200
C435        C  0.54725414  0.54428128  0.72731733    -0.18200
C436        C  0.54200710  0.44134250  0.72696594    -0.18200
H437        H  0.39387446  0.47916600  0.75438307     0.14700
H438        H  0.39599724  0.53385500  0.74565478     0.14700
H439        H  0.59724853  0.46234314  0.73327185     0.14700
H440        H  0.59977709  0.51715450  0.73463499     0.14700
H441        H  0.46057654  0.39329429  0.72216751     0.13000
H442        H  0.51430693  0.38861386  0.71900178     0.13000
H443        H  0.47432324  0.60371811  0.70841340     0.13000
H444        H  0.52792138  0.60021142  0.71383055     0.13000
H445        H  0.47071906  0.49766989  0.71497463     0.26200
H446        H  0.51616799  0.49480839  0.72209779     0.26200
N447        N  0.46309056  0.49968646  0.17465771    -0.36500
N448        N  0.50590075  0.54297413  0.17451897    -0.57100
N449        N  0.54714491  0.49952002  0.17829247    -0.36500
N450        N  0.50446408  0.45610349  0.17547658    -0.57100
C451        C  0.44850156  0.52262415  0.16612065     0.27000
C452        C  0.44754137  0.47693019  0.16820062     0.27000
C453        C  0.56334080  0.52217307  0.17364174     0.27000
C454        C  0.56257588  0.47627127  0.17326891     0.27000
C455        C  0.48334534  0.55944446  0.17732418     0.35700
C456        C  0.52782205  0.55937595  0.18077745     0.35700
C457        C  0.48207186  0.44008465  0.18052908     0.35700
C458        C  0.52669473  0.43986144  0.18174331     0.35700
C459        C  0.42343182  0.51438186  0.15411687    -0.21800
C460        C  0.42284265  0.48553399  0.15539330    -0.21800
C461        C  0.58947121  0.51307707  0.16577353    -0.21800
C462        C  0.58892154  0.48417524  0.16534933    -0.21800
C463        C  0.49091414  0.58651928  0.18510840    -0.22900
C464        C  0.51909258  0.58654621  0.18706338    -0.22900
C465        C  0.49017935  0.41350431  0.18990477    -0.22900
C466        C  0.51844857  0.41330226  0.19044429    -0.22900
C467        C  0.45616783  0.55085019  0.17105224    -0.18200
C468        C  0.45453944  0.44873038  0.17496374    -0.18200
C469        C  0.55434394  0.44819898  0.17833745    -0.18200
C470        C  0.55561045  0.55060226  0.17859225    -0.18200
H471        H  0.40710437  0.52780627  0.14560728     0.14700
H472        H  0.40605626  0.47241726  0.14787228     0.14700
H473        H  0.60737067  0.52572806  0.16136118     0.14700
H474        H  0.60621888  0.47051690  0.16052238     0.14700
H475        H  0.47758658  0.60452613  0.18855788     0.13000
H476        H  0.53158603  0.60471335  0.19201717     0.13000
H477        H  0.47715851  0.39599725  0.19562953     0.13000
H478        H  0.53144733  0.39562424  0.19656955     0.13000
H479        H  0.48097660  0.49980208  0.18746236     0.26200
H480        H  0.52791289  0.49972684  0.18809788     0.26200
N481        N  0.78085945  0.54189900  0.45702362    -0.36500
N482        N  0.78521254  0.50079163  0.50404492    -0.57100
N483        N  0.78312992  0.45626234  0.45959452    -0.36500
N484        N  0.78211311  0.49750451  0.41253920    -0.57100
C485        C  0.78717517  0.55854620  0.48040505     0.27000
C486        C  0.78607653  0.55677762  0.43222824     0.27000
C487        C  0.79038981  0.44162574  0.48412862     0.27000
C488        C  0.78883917  0.43979371  0.43597451     0.27000
C489        C  0.77928705  0.52391373  0.52025117     0.35700
C490        C  0.78032761  0.47843603  0.52162043     0.35700
C491        C  0.77555663  0.51967745  0.39506657     0.35700
C492        C  0.77679466  0.47410575  0.39652264     0.35700
C493        C  0.79657194  0.58424336  0.47042956    -0.21800
C494        C  0.79608119  0.58307313  0.44001292    -0.21800
C495        C  0.80099545  0.41561346  0.47601836    -0.21800
C496        C  0.79996660  0.41443922  0.44559187    -0.21800
C497        C  0.77090517  0.51627732  0.54831488    -0.22900
C498        C  0.77141780  0.48742315  0.54914626    -0.22900
C499        C  0.76604207  0.51030211  0.36778437    -0.22900
C500        C  0.76693099  0.48140597  0.36867653    -0.22900
C501        C  0.78265696  0.55181329  0.51038892    -0.18200
C502        C  0.77974569  0.54816502  0.40293037    -0.18200
C503        C  0.78239461  0.44635898  0.40618793    -0.18200
C504        C  0.78523600  0.45013407  0.51356862    -0.18200
H505        H  0.80283487  0.60207833  0.48369980     0.14700
H506        H  0.80194499  0.59991626  0.42530433     0.14700
H507        H  0.80823159  0.39899272  0.49055556     0.14700
H508        H  0.80629420  0.39677412  0.43210810     0.14700
H509        H  0.76498908  0.53004310  0.56627220     0.13000
H510        H  0.76589031  0.47458737  0.56791716     0.13000
H511        H  0.75934360  0.52292090  0.34910069     0.13000
H512        H  0.76111900  0.46739130  0.35084094     0.13000
H513        H  0.77022105  0.52302790  0.45791391     0.26200
H514        H  0.77162653  0.47477150  0.45922091     0.26200
N515        N  0.53180446  0.79864216  0.45812260    -0.36500
N516        N  0.49049802  0.80453504  0.41146316    -0.57100
N517        N  0.44886675  0.80797005  0.45632459    -0.36500
N518        N  0.49014767  0.80476414  0.50301713    -0.57100
C519        C  0.54791669  0.80290817  0.43435586     0.27000
C520        C  0.54767926  0.80226793  0.48254688     0.27000
C521        C  0.43398220  0.81456562  0.43189818     0.27000
C522        C  0.43408229  0.81632907  0.47989581     0.27000
C523        C  0.51231392  0.79656751  0.39516079     0.35700
C524        C  0.46800176  0.80014703  0.39437565     0.35700
C525        C  0.51136030  0.79548639  0.51999844     0.35700
C526        C  0.46713529  0.80128385  0.51907790     0.35700
C527        C  0.57440912  0.80927425  0.44373465    -0.21800
C528        C  0.57427885  0.80881928  0.47418955    -0.21800
C529        C  0.40952877  0.82749677  0.43987769    -0.21800
C530        C  0.40969328  0.82887756  0.47027020    -0.21800
C531        C  0.50377160  0.78773511  0.36735648    -0.22900
C532        C  0.47560724  0.78973673  0.36694526    -0.22900
C533        C  0.50187801  0.78642568  0.54717354    -0.22900
C534        C  0.47377983  0.78985086  0.54649716    -0.22900
C535        C  0.53991673  0.79843000  0.40462246    -0.18200
C536        C  0.53926606  0.79704634  0.51187492    -0.18200
C537        C  0.44046331  0.80951314  0.50959780    -0.18200
C538        C  0.44083368  0.80656470  0.40292338    -0.18200
H539        H  0.59216852  0.81309458  0.43006078     0.14700
H540        H  0.59195429  0.81221230  0.48846315     0.14700
H541        H  0.39306096  0.83458204  0.42533074     0.14700
H542        H  0.39323917  0.83715906  0.48377555     0.14700
H543        H  0.51647865  0.78040928  0.34934644     0.13000
H544        H  0.46234507  0.78418218  0.34851248     0.13000
H545        H  0.51390161  0.77823686  0.56556383     0.13000
H546        H  0.45992032  0.78454925  0.56421514     0.13000
H547        H  0.51225301  0.78994953  0.45765612     0.26200
H548        H  0.46586230  0.79459423  0.45695302     0.26200
N549        N  0.18821430  0.45258415  0.45828067    -0.36500
N550        N  0.18687750  0.49916272  0.50023960    -0.57100
N551        N  0.19281304  0.53726798  0.45083180    -0.36500
N552        N  0.19070034  0.49100378  0.40881224    -0.57100
C553        C  0.18349342  0.43850627  0.48361344     0.27000
C554        C  0.18504622  0.43419868  0.43573615     0.27000
C555        C  0.18763826  0.55573832  0.47280686     0.27000
C556        C  0.19019641  0.55142895  0.42510164     0.27000
C557        C  0.19087791  0.47777138  0.51945372     0.35700
C558        C  0.19239277  0.52298512  0.51537123     0.35700
C559        C  0.19476251  0.46676967  0.39394810     0.35700
C560        C  0.19743192  0.51183396  0.39004305     0.35700
C561        C  0.17692265  0.41082042  0.47711610    -0.21800
C562        C  0.17793946  0.40809271  0.44685313    -0.21800
C563        C  0.18154425  0.58194903  0.46088722    -0.21800
C564        C  0.18315108  0.57921368  0.43069051    -0.21800
C565        C  0.19787541  0.48811510  0.54719963    -0.22900
C566        C  0.19877379  0.51682494  0.54461678    -0.22900
C567        C  0.20281688  0.47233104  0.36515591    -0.22900
C568        C  0.20471291  0.50091310  0.36276240    -0.22900
C569        C  0.18834261  0.44900448  0.51239451    -0.18200
C570        C  0.19142384  0.43961986  0.40590330    -0.18200
C571        C  0.19665152  0.54064526  0.39699196    -0.18200
C572        C  0.19136512  0.55026077  0.50321636    -0.18200
H573        H  0.17282208  0.39406403  0.49264058     0.14700
H574        H  0.17474990  0.38883943  0.43456507     0.14700
H575        H  0.17716263  0.60122097  0.47272763     0.14700
H576        H  0.18016844  0.59592358  0.41468570     0.14700
H577        H  0.20218253  0.47621416  0.56714987     0.13000
H578        H  0.20387693  0.53144241  0.56215767     0.13000
H579        H  0.20722249  0.45740153  0.34772963     0.13000
H580        H  0.21090437  0.51228858  0.34320682     0.13000
H581        H  0.19736265  0.47210523  0.45691306     0.26200
H582        H  0.20192466  0.51762645  0.45333609     0.26200
N583        N  0.45478812  0.21245412  0.45526696    -0.36500
N584        N  0.49663872  0.21266887  0.50054840    -0.57100
N585        N  0.53875550  0.20902554  0.45453054    -0.36500
N586        N  0.49689648  0.20481913  0.40920980    -0.57100
C587        C  0.43925381  0.20887758  0.47969032     0.27000
C588        C  0.43952978  0.20395280  0.43181684     0.27000
C589        C  0.55471001  0.20603492  0.47893102     0.27000
C590        C  0.55477138  0.20363510  0.43085966     0.27000
C591        C  0.47483431  0.21936133  0.51759727     0.35700
C592        C  0.51932732  0.21708280  0.51731441     0.35700
C593        C  0.47441175  0.21038078  0.39238804     0.35700
C594        C  0.51891940  0.20947752  0.39182312     0.35700
C595        C  0.41385852  0.19804414  0.47166864    -0.21800
C596        C  0.41409030  0.19475329  0.44146279    -0.21800
C597        C  0.58128398  0.19872027  0.47065975    -0.21800
C598        C  0.58131654  0.19726273  0.44029187    -0.21800
C599        C  0.48369500  0.22775886  0.54543678    -0.22900
C600        C  0.51189777  0.22616279  0.54531852    -0.22900
C601        C  0.48227483  0.21832565  0.36412883    -0.22900
C602        C  0.51045241  0.21741033  0.36370077    -0.22900
C603        C  0.44704086  0.21610550  0.50889275    -0.18200
C604        C  0.44691693  0.20700247  0.40180334    -0.18200
C605        C  0.54662871  0.20672730  0.40098033    -0.18200
C606        C  0.54666024  0.21213310  0.50821422    -0.18200
H607        H  0.39690555  0.19304830  0.48607564     0.14700
H608        H  0.39722619  0.18693134  0.42805272     0.14700
H609        H  0.59902771  0.19549790  0.48496345     0.14700
H610        H  0.59900478  0.19265270  0.42668785     0.14700
H611        H  0.47118032  0.23412572  0.56398433     0.13000
H612        H  0.52538734  0.23112845  0.56376686     0.13000
H613        H  0.46919460  0.22450515  0.34571299     0.13000
H614        H  0.52323553  0.22262838  0.34502285     0.13000
H615        H  0.47319395  0.22340422  0.45414231     0.26200
H616        H  0.51916905  0.21773948  0.45397255     0.26200
C617        C  0.59703788  0.73484491  0.57450165    -0.17800
C618        C  0.61782943  0.73109833  0.59579962    -0.19900
C619        C  0.63109034  0.75441080  0.60838340     0.20700
C620        C  0.62315567  0.78179943  0.59962902    -0.02800
C621        C  0.60212661  0.78559412  0.57818777    -0.05900
C622        C  0.58910695  0.76196751  0.56548444     0.21000
C623        C  0.59428424  0.81300235  0.56931743     0.19200
C624        C  0.60752592  0.83630394  0.58190679    -0.17400
C625        C  0.62842201  0.83253002  0.60308641    -0.19600
C626        C  0.63639602  0.80538747  0.61207323     0.20600
C627        C  0.65762342  0.80142409  0.63297437    -0.32600
C628        C  0.66599723  0.77416081  0.64148748     0.01300
C629        C  0.65239542  0.75077687  0.62924509    -0.24000
C630        C  0.56851655  0.76590606  0.54388483    -0.28500
C631        C  0.56070203  0.79312235  0.53506557     0.07000
C632        C  0.57347082  0.81658333  0.54789742    -0.27200
H633        H  0.58722059  0.71650848  0.56499885     0.11700
H634        H  0.62366728  0.70993414  0.60229776     0.12900
H635        H  0.60179163  0.85746135  0.57528583     0.11900
H636        H  0.63842495  0.85086111  0.61237122     0.11200
H637        H  0.66799796  0.81960248  0.64214672     0.16600
H638        H  0.65860857  0.72968325  0.63565480     0.12500
H639        H  0.55854271  0.74789776  0.53383505     0.15300
H640        H  0.56733242  0.83753513  0.54090123     0.15100
C641        C  0.82006701  0.60411968  0.59649426    -0.17800
C642        C  0.81649686  0.62359714  0.61941477    -0.19900
C643        C  0.79202333  0.63932079  0.62149620     0.20700
C644        C  0.77128583  0.63600090  0.59968721    -0.02800
C645        C  0.77484043  0.61626375  0.57660102    -0.05900
C646        C  0.79921399  0.59997171  0.57524874     0.21000
C647        C  0.75370131  0.61231485  0.55535715     0.19200
C648        C  0.72948650  0.62846848  0.55703985    -0.17400
C649        C  0.72600381  0.64804820  0.57984452    -0.19600
C650        C  0.74665570  0.65178858  0.60141508     0.20600
C651        C  0.74270500  0.67033326  0.62520528    -0.32600
C652        C  0.76273298  0.67283822  0.64780144     0.01300
C653        C  0.78755815  0.65759213  0.64548617    -0.24000
C654        C  0.80198449  0.57939128  0.55312167    -0.28500
C655        C  0.78073704  0.57503868  0.53233733     0.07000
C656        C  0.75687880  0.59183142  0.53325313    -0.27200
H657        H  0.83897248  0.59193776  0.59568508     0.11700
H658        H  0.83271265  0.62600770  0.63583035     0.12900
H659        H  0.71306692  0.62569657  0.54092524     0.11900
H660        H  0.70694523  0.65996302  0.58087668     0.11200
H661        H  0.72340243  0.68178337  0.62688429     0.16600
H662        H  0.80313402  0.65948110  0.66269980     0.12500
H663        H  0.82037266  0.56637830  0.55230846     0.15300
H664        H  0.74051545  0.58833336  0.51720879     0.15100
C665        C  0.64196852  0.61725030  0.77850323    -0.17800
C666        C  0.62077283  0.59744552  0.77907044    -0.19900
C667        C  0.60591388  0.59102473  0.75316326     0.20700
C668        C  0.61246400  0.60473777  0.72643452    -0.02800
C669        C  0.63336316  0.62517978  0.72602053    -0.05900
C670        C  0.64837147  0.63127176  0.75212158     0.21000
C671        C  0.63931515  0.63941185  0.69942493     0.19200
C672        C  0.62479127  0.63268616  0.67343186    -0.17400
C673        C  0.60449871  0.61201984  0.67370792    -0.19600
C674        C  0.59812361  0.59805746  0.70006717     0.20600
C675        C  0.57747675  0.57771717  0.70053184    -0.32600
C676        C  0.57020978  0.56474828  0.72717217     0.01300
C677        C  0.58453621  0.57129305  0.75343370    -0.24000
C678        C  0.66965646  0.65107367  0.75123386    -0.28500
C679        C  0.67541085  0.66545398  0.72484440     0.07000
C680        C  0.65995494  0.65983632  0.69916780    -0.27200
H681        H  0.65327302  0.62169998  0.79873537     0.11700
H682        H  0.61607956  0.58706405  0.79974478     0.12900
H683        H  0.62924649  0.64330445  0.65282663     0.11900
H684        H  0.59362183  0.60711061  0.65332783     0.11200
H685        H  0.56647444  0.57237818  0.68032634     0.16600
H686        H  0.57899909  0.56097549  0.77390901     0.12500
H687        H  0.68171253  0.65540141  0.77101457     0.15300
H688        H  0.66476151  0.67061738  0.67872063     0.15100
C689        C  0.81324336  0.39023176  0.63223430    -0.17800
C690        C  0.81626744  0.40987325  0.60943055    -0.19900
C691        C  0.79926601  0.40882663  0.58417027     0.20700
C692        C  0.77922957  0.38757471  0.58168228    -0.02800
C693        C  0.77640886  0.36758583  0.60450850    -0.05900
C694        C  0.79331747  0.36906257  0.63005620     0.21000
C695        C  0.75635883  0.34640642  0.60194175     0.19200
C696        C  0.73927982  0.34537373  0.57674731    -0.17400
C697        C  0.74190343  0.36531047  0.55426858    -0.19600
C698        C  0.76174503  0.38649111  0.55656435     0.20600
C699        C  0.76415036  0.40682117  0.53436694    -0.32600
C700        C  0.78391209  0.42810802  0.53680079     0.01300
C701        C  0.80165208  0.42884033  0.56153982    -0.24000
C702        C  0.78963354  0.34967556  0.65315497    -0.28500
C703        C  0.76950822  0.32860956  0.65079465     0.07000
C704        C  0.75327956  0.32695085  0.62486847    -0.27200
H705        H  0.82641279  0.39168391  0.65165348     0.11700
H706        H  0.83172596  0.42606888  0.61169190     0.12900
H707        H  0.72370403  0.32928275  0.57455352     0.11900
H708        H  0.72833170  0.36423182  0.53513535     0.11200
H709        H  0.75043684  0.40638957  0.51528996     0.16600
H710        H  0.81693723  0.44527995  0.56328925     0.12500
H711        H  0.80214538  0.35120561  0.67307514     0.15300
H712        H  0.73740848  0.31111402  0.62293754     0.15100
C713        C  0.60543571  0.17035434  0.58606375    -0.17800
C714        C  0.62691679  0.17275084  0.60665566    -0.19900
C715        C  0.64076294  0.19834069  0.61014561     0.20700
C716        C  0.63277800  0.22186272  0.59298796    -0.02800
C717        C  0.61115161  0.21946761  0.57226428    -0.05900
C718        C  0.59747420  0.19353898  0.56874854     0.21000
C719        C  0.60337478  0.24294784  0.55489200     0.19200
C720        C  0.61709755  0.26857104  0.55849360    -0.17400
C721        C  0.63855732  0.27094124  0.57908689    -0.19600
C722        C  0.64658111  0.24769936  0.59630558     0.20600
C723        C  0.66843622  0.24974098  0.61648555    -0.32600
C724        C  0.67684230  0.22622791  0.63322164     0.01300
C725        C  0.66272062  0.20069755  0.63018718    -0.24000
C726        C  0.57617544  0.19128713  0.54786606    -0.28500
C727        C  0.56861758  0.21460270  0.53062888     0.07000
C728        C  0.58210392  0.24031280  0.53410721    -0.27200
H729        H  0.59511976  0.15034970  0.58359771     0.11700
H730        H  0.63283023  0.15453708  0.61971162     0.12900
H731        H  0.61130416  0.28673470  0.54530022     0.11900
H732        H  0.64899488  0.29089671  0.58142061     0.11200
H733        H  0.67921483  0.26953230  0.61873101     0.16600
H734        H  0.66897819  0.18254962  0.64318717     0.12500
H735        H  0.56556975  0.17149558  0.54478457     0.15300
H736        H  0.57600525  0.25812682  0.52050396     0.15100
C737        C  0.61717353  0.34738244  0.67420797    -0.17800
C738        C  0.59469318  0.36605387  0.67506355    -0.19900
C739        C  0.58937471  0.38199655  0.70058906     0.20700
C740        C  0.60665559  0.37861103  0.72567395    -0.02800
C741        C  0.62971591  0.36025907  0.72457083    -0.05900
C742        C  0.63503763  0.34457689  0.69870698     0.21000
C743        C  0.64773490  0.35806301  0.74917697     0.19200
C744        C  0.64204336  0.37341217  0.77495513    -0.17400
C745        C  0.61893484  0.39107023  0.77627177    -0.19600
C746        C  0.60130849  0.39406511  0.75167963     0.20600
C747        C  0.57899531  0.41295031  0.75237353    -0.32600
C748        C  0.56269983  0.41779887  0.72697445     0.01300
C749        C  0.56766735  0.40184112  0.70126654    -0.24000
C750        C  0.65837165  0.32681456  0.69765761    -0.28500
C751        C  0.67692709  0.32517962  0.72183575     0.07000
C752        C  0.67132350  0.34087893  0.74750641    -0.27200
H753        H  0.62087002  0.33549349  0.65416254     0.11700
H754        H  0.58159896  0.36820578  0.65563888     0.12900
H755        H  0.65558181  0.37188918  0.79409085     0.11900
H756        H  0.61515435  0.40283895  0.79637458     0.11200
H757        H  0.57512271  0.42512170  0.77221371     0.16600
H758        H  0.55507497  0.40542365  0.68167493     0.12500
H759        H  0.66256918  0.31495769  0.67768970     0.15300
H760        H  0.68532399  0.33962897  0.76629696     0.15100
C761        C  0.38419029  0.18368465  0.62238893    -0.17800
C762        C  0.40402314  0.18138810  0.60031501    -0.19900
C763        C  0.40437607  0.20063234  0.57682171     0.20700
C764        C  0.38425721  0.22218274  0.57525619    -0.02800
C765        C  0.36412683  0.22443749  0.59753371    -0.05900
C766        C  0.36436103  0.20525928  0.62134049     0.21000
C767        C  0.34421545  0.24621020  0.59636491     0.19200
C768        C  0.34442445  0.26525971  0.57259877    -0.17400
C769        C  0.36439270  0.26303000  0.55049610    -0.19600
C770        C  0.38451037  0.24168857  0.55171392     0.20600
C771        C  0.40501270  0.23958777  0.53002927    -0.32600
C772        C  0.42523257  0.21829928  0.53174251     0.01300
C773        C  0.42463986  0.19879997  0.55502938    -0.24000
C774        C  0.34540405  0.20850279  0.64426204    -0.28500
C775        C  0.32617475  0.23076613  0.64401374     0.07000
C776        C  0.32514103  0.24908574  0.61950190    -0.27200
H777        H  0.38459417  0.16878396  0.64053077     0.11700
H778        H  0.41928209  0.16471001  0.60178909     0.12900
H779        H  0.32935319  0.28212539  0.57130296     0.11900
H780        H  0.36424124  0.27816316  0.53256943     0.11200
H781        H  0.40545497  0.25455535  0.51194413     0.16600
H782        H  0.44010411  0.18227152  0.55614616     0.12500
H783        H  0.34621800  0.19414912  0.66290216     0.15300
H784        H  0.31051369  0.26640564  0.61918992     0.15100
C785        C  0.25338483  0.38581644  0.56334412    -0.17800
C786        C  0.25910411  0.36531285  0.58471221    -0.19900
C787        C  0.23825257  0.35575992  0.60338517     0.20700
C788        C  0.21142623  0.36719466  0.60074640    -0.02800
C789        C  0.20566707  0.38791943  0.57928423    -0.05900
C790        C  0.22675490  0.39710727  0.56040819     0.21000
C791        C  0.17875307  0.39918413  0.57647066     0.19200
C792        C  0.15794247  0.38972830  0.59521894    -0.17400
C793        C  0.16364135  0.36906797  0.61642982    -0.19600
C794        C  0.19024941  0.35762381  0.61923293     0.20600
C795        C  0.19589634  0.33636209  0.63980945    -0.32600
C796        C  0.22242028  0.32437817  0.64213716     0.01300
C797        C  0.24361759  0.33454290  0.62419525    -0.24000
C798        C  0.22075064  0.41724838  0.53875675    -0.28500
C799        C  0.19405442  0.42830434  0.53589413     0.07000
C800        C  0.17312767  0.41948471  0.55476055    -0.27200
H801        H  0.26975140  0.39272937  0.54899426     0.11700
H802        H  0.27977661  0.35673031  0.58644766     0.12900
H803        H  0.13721961  0.39815419  0.59332672     0.11900
H804        H  0.14718187  0.36188015  0.63050389     0.11200
H805        H  0.17940815  0.32877833  0.65363133     0.16600
H806        H  0.26408160  0.32539264  0.62578492     0.12500
H807        H  0.23672686  0.42432185  0.52395131     0.15300
H808        H  0.15256191  0.42821424  0.55222951     0.15100
C809        C  0.40462570  0.36349212  0.77913311    -0.17800
C810        C  0.38656578  0.34078774  0.77720900    -0.19900
C811        C  0.36498358  0.34096589  0.75633972     0.20700
C812        C  0.36102094  0.36455407  0.73782554    -0.02800
C813        C  0.37951418  0.38720079  0.73939087    -0.05900
C814        C  0.40157284  0.38652939  0.75995365     0.21000
C815        C  0.37660744  0.40992754  0.71950558     0.19200
C816        C  0.35432797  0.41067742  0.69954328    -0.17400
C817        C  0.33567105  0.38847425  0.69839109    -0.19600
C818        C  0.33924929  0.36504666  0.71691661     0.20600
C819        C  0.32210404  0.34166341  0.71406051    -0.32600
C820        C  0.32681487  0.31750593  0.73136288     0.01300
C821        C  0.34789381  0.31758975  0.75295755    -0.24000
C822        C  0.42088658  0.40827193  0.76000502    -0.28500
C823        C  0.41929422  0.42973521  0.73863276     0.07000
C824        C  0.39671958  0.43082938  0.71899297    -0.27200
H825        H  0.42145962  0.36266044  0.79502253     0.11700
H826        H  0.38978331  0.32286482  0.79167204     0.12900
H827        H  0.35168174  0.42814835  0.68436659     0.11900
H828        H  0.31893666  0.38923318  0.68237350     0.11200
H829        H  0.30583764  0.34187301  0.69746050     0.16600
H830        H  0.35146166  0.29921192  0.76669896     0.12500
H831        H  0.43813578  0.40766088  0.77540892     0.15300
H832        H  0.39541850  0.44744175  0.70259117     0.15100
C833        C  0.85195115  0.87993645  0.64920837    -0.17800
C834        C  0.87446723  0.89810553  0.64904702    -0.19900
C835        C  0.89303057  0.89860632  0.67301482     0.20700
C836        C  0.88878449  0.88078616  0.69751919    -0.02800
C837        C  0.86619011  0.86230415  0.69757136    -0.05900
C838        C  0.84772442  0.86185580  0.67326438     0.21000
C839        C  0.86209365  0.84429931  0.72193370     0.19200
C840        C  0.88023510  0.84535228  0.74626748    -0.17400
C841        C  0.90251145  0.86382658  0.74632242    -0.19600
C842        C  0.90706398  0.88146957  0.72200235     0.20600
C843        C  0.92940965  0.89995623  0.72182016    -0.32600
C844        C  0.93374340  0.91759123  0.69742343     0.01300
C845        C  0.91561620  0.91677824  0.67305625    -0.24000
C846        C  0.82536837  0.84334618  0.67343599    -0.28500
C847        C  0.82145087  0.82495055  0.69738509     0.07000
C848        C  0.83990477  0.82560314  0.72157159    -0.27200
H849        H  0.83790362  0.87993066  0.63043696     0.11700
H850        H  0.87735405  0.91178785  0.63017122     0.12900
H851        H  0.87722577  0.83183112  0.76524821     0.11900
H852        H  0.91625079  0.86423463  0.76534829     0.11200
H853        H  0.94328234  0.90097214  0.74072872     0.16600
H854        H  0.91891452  0.93071220  0.65444574     0.12500
H855        H  0.81111802  0.84311386  0.65482592     0.15300
H856        H  0.83668847  0.81192220  0.74040580     0.15100
C857        C  0.90548761  0.12118733  0.74776774    -0.17800
C858        C  0.88512145  0.14221024  0.74632999    -0.19900
C859        C  0.86891487  0.14577728  0.72066768     0.20700
C860        C  0.87339175  0.12793959  0.69617146    -0.02800
C861        C  0.89415371  0.10682579  0.69753295    -0.05900
C862        C  0.91021361  0.10336888  0.72351532     0.21000
C863        C  0.89867295  0.08906195  0.67298590     0.19200
C864        C  0.88249503  0.09263908  0.64731678    -0.17400
C865        C  0.86177412  0.11328733  0.64609783    -0.19600
C866        C  0.85692201  0.13095634  0.67044338     0.20600
C867        C  0.83564629  0.15125679  0.66967561    -0.32600
C868        C  0.83094195  0.16914400  0.69403115     0.01300
C869        C  0.84802250  0.16649350  0.71928476    -0.24000
C870        C  0.93061179  0.08214280  0.72479842    -0.28500
C871        C  0.93525367  0.06435549  0.70038863     0.07000
C872        C  0.91916088  0.06798485  0.67458018    -0.27200
H873        H  0.91755968  0.11885958  0.76791418     0.11700
H874        H  0.88192509  0.15559209  0.76541715     0.12900
H875        H  0.88571386  0.07928477  0.62821705     0.11900
H876        H  0.84943878  0.11535359  0.62610237     0.11200
H877        H  0.82261086  0.15306274  0.65014933     0.16600
H878        H  0.84433406  0.17983022  0.73832209     0.12500
H879        H  0.94289533  0.07935712  0.74475142     0.15300
H880        H  0.92266734  0.05433107  0.65575755     0.15100
C881        C  0.15065981  0.11330824  0.75635322    -0.17800
C882        C  0.13102967  0.09197244  0.75746641    -0.19900
C883        C  0.11518054  0.08542072  0.73230556     0.20700
C884        C  0.11950444  0.10007793  0.70558128    -0.02800
C885        C  0.13877488  0.12197221  0.70465039    -0.05900
C886        C  0.15440531  0.12864177  0.73018282     0.21000
C887        C  0.14200854  0.13754179  0.67830317     0.19200
C888        C  0.12692702  0.13033977  0.65285667    -0.17400
C889        C  0.10830369  0.10815898  0.65357948    -0.19600
C890        C  0.10416736  0.09325277  0.67990462     0.20600
C891        C  0.08449408  0.07206402  0.68117608    -0.32600
C892        C  0.07925236  0.05841578  0.70798800     0.01300
C893        C  0.09473139  0.06485659  0.73343745    -0.24000
C894        C  0.17315004  0.15083098  0.72911793    -0.28500
C895        C  0.17557864  0.16680933  0.70320215     0.07000
C896        C  0.16006068  0.16024238  0.67795521    -0.27200
H897        H  0.16256499  0.11814757  0.77608559     0.11700
H898        H  0.12809674  0.08074098  0.77804829     0.12900
H899        H  0.12942301  0.14196929  0.63244668     0.11900
H900        H  0.09671517  0.10303640  0.63371487     0.11200
H901        H  0.07255275  0.06669140  0.66159807     0.16600
H902        H  0.09069765  0.05390545  0.75397551     0.12500
H903        H  0.18523413  0.15625917  0.74858450     0.15300
H904        H  0.16230094  0.17268434  0.65801243     0.15100
C905        C  0.25620280  0.61457918  0.55217954    -0.17800
C906        C  0.26146030  0.63714970  0.57117937    -0.19900
C907        C  0.23966927  0.65151204  0.58479445     0.20700
C908        C  0.21227969  0.64320764  0.57903437    -0.02800
C909        C  0.20697670  0.62032351  0.56006223    -0.05900
C910        C  0.22908424  0.60595467  0.54661657     0.21000
C911        C  0.17958933  0.61164124  0.55480653     0.19200
C912        C  0.15780631  0.62606999  0.56830911    -0.17400
C913        C  0.16307099  0.64881880  0.58705527    -0.19600
C914        C  0.19020502  0.65744051  0.59262880     0.20600
C915        C  0.19566563  0.67955348  0.61220213    -0.32600
C916        C  0.22293234  0.68733931  0.61884982     0.01300
C917        C  0.24481847  0.67353306  0.60466421    -0.24000
C918        C  0.22365302  0.58311531  0.52799466    -0.28500
C919        C  0.19650032  0.57440518  0.52293600     0.07000
C920        C  0.17452681  0.58860214  0.53627060    -0.27200
H921        H  0.27336288  0.60372495  0.54200994     0.11700
H922        H  0.28258905  0.64324373  0.57539904     0.12900
H923        H  0.13670406  0.61967349  0.56448557     0.11900
H924        H  0.14592170  0.65951139  0.59742799     0.11200
H925        H  0.17865201  0.68992520  0.62319190     0.16600
H926        H  0.26588331  0.67935633  0.60972870     0.12500
H927        H  0.24046371  0.57193402  0.51749574     0.15300
H928        H  0.15362303  0.58168981  0.53209582     0.15100
C929        C  0.40038695  0.83569663  0.60596222    -0.17800
C930        C  0.38092019  0.83091738  0.62796702    -0.19900
C931        C  0.35905949  0.81232945  0.62285746     0.20700
C932        C  0.35601097  0.79947364  0.59489707    -0.02800
C933        C  0.37579381  0.80396882  0.57291082    -0.05900
C934        C  0.39836173  0.82178452  0.57865805     0.21000
C935        C  0.37366205  0.78956446  0.54570056     0.19200
C936        C  0.35100978  0.77223261  0.53996482    -0.17400
C937        C  0.33119448  0.76808040  0.56162324    -0.19600
C938        C  0.33398135  0.78095343  0.58937820     0.20600
C939        C  0.31604203  0.77426829  0.61220040    -0.32600
C940        C  0.32028697  0.78514403  0.64075990     0.01300
C941        C  0.34109287  0.80513996  0.64564131    -0.24000
C942        C  0.41896739  0.82451032  0.55740181    -0.28500
C943        C  0.41760624  0.80893850  0.53103285     0.07000
C944        C  0.39473850  0.79189021  0.52512918    -0.27200
H945        H  0.41748492  0.84957580  0.61062723     0.11700
H946        H  0.38339772  0.84113501  0.64925094     0.12900
H947        H  0.34899300  0.76132795  0.51900862     0.11900
H948        H  0.31424963  0.75397664  0.55705084     0.11200
H949        H  0.29980458  0.75919720  0.60807419     0.16600
H950        H  0.34419204  0.81407497  0.66748206     0.12500
H951        H  0.43654494  0.83788592  0.56169963     0.15300
H952        H  0.39375495  0.77991836  0.50471821     0.15100
C953        C  0.40876990  0.64128424  0.75977139    -0.17800
C954        C  0.38956761  0.66327447  0.75832732    -0.19900
C955        C  0.36920076  0.66378681  0.73609680     0.20700
C956        C  0.36834897  0.64211021  0.71482694    -0.02800
C957        C  0.38791877  0.61990518  0.71617966    -0.05900
C958        C  0.40802860  0.61942664  0.73896028     0.21000
C959        C  0.38726196  0.59815171  0.69493555     0.19200
C960        C  0.36717353  0.59904127  0.67233773    -0.17400
C961        C  0.34770152  0.62099647  0.67107711    -0.19600
C962        C  0.34795005  0.64259001  0.69233552     0.20600
C963        C  0.32835786  0.66470503  0.69148519    -0.32600
C964        C  0.32921476  0.68654278  0.71265318     0.01300
C965        C  0.34978867  0.68571741  0.73482916    -0.24000
C966        C  0.42699318  0.59708311  0.74068511    -0.28500
C967        C  0.42658337  0.57530406  0.71967486     0.07000
C968        C  0.40662697  0.57594724  0.69681180    -0.27200
H969        H  0.42417658  0.64133096  0.77726990     0.11700
H970        H  0.39057408  0.67985861  0.77473544     0.12900
H971        H  0.36640735  0.58264472  0.65570984     0.11900
H972        H  0.33238329  0.62103725  0.65348923     0.11200
H973        H  0.31286540  0.66522112  0.67406398     0.16600
H974        H  0.35076189  0.70229058  0.75127174     0.12500
H975        H  0.44222934  0.59657325  0.75837653     0.15300
H976        H  0.40626333  0.55918120  0.68056421     0.15100
C977        C  0.12756504  0.87803531  0.75814605    -0.17800
C978        C  0.14686162  0.85601808  0.75902446    -0.19900
C979        C  0.15168371  0.83949476  0.73382926     0.20700
C980        C  0.13729748  0.84565066  0.70728036    -0.02800
C981        C  0.11805702  0.86816005  0.70627991    -0.05900
C982        C  0.11286068  0.88411873  0.73199012     0.21000
C983        C  0.10367979  0.87434649  0.67972796     0.19200
C984        C  0.10889210  0.85814970  0.65437894    -0.17400
C985        C  0.12758278  0.83558086  0.65550615    -0.19600
C986        C  0.14169602  0.82897570  0.68191045     0.20600
C987        C  0.15969571  0.80569990  0.68355242    -0.32600
C988        C  0.17387488  0.79915598  0.71007011     0.01300
C989        C  0.17013476  0.81656220  0.73493311    -0.24000
C990        C  0.09278114  0.90556964  0.73122218    -0.28500
C991        C  0.07809285  0.91166152  0.70496260     0.07000
C992        C  0.08404568  0.89627352  0.67915094    -0.27200
H993        H  0.12396904  0.89017482  0.77804259     0.11700
H994        H  0.15772395  0.85163799  0.77958453     0.12900
H995        H  0.09815236  0.86263826  0.63377251     0.11900
H996        H  0.13082785  0.82312832  0.63574989     0.11200
H997        H  0.16253284  0.79252402  0.66422547     0.16600
H998        H  0.18075366  0.81158526  0.75550805     0.12500
H999        H  0.08841257  0.91753788  0.75107034     0.15300
H1000       H  0.07297138  0.90109744  0.65881451     0.15100
C1001       C  0.16148700  0.71989964  0.86345548    -0.17800
C1002       C  0.14118545  0.71641143  0.88472075    -0.19900
C1003       C  0.11759186  0.70070478  0.87816605     0.20700
C1004       C  0.11466230  0.68763316  0.85033997    -0.02800
C1005       C  0.13488230  0.69160901  0.82869543    -0.05900
C1006       C  0.15825112  0.70805117  0.83524813     0.21000
C1007       C  0.13126001  0.67996689  0.80024564     0.19200
C1008       C  0.10797456  0.66357798  0.79403776    -0.17400
C1009       C  0.08813493  0.65916993  0.81574535    -0.19600
C1010       C  0.09112904  0.67139223  0.84383206     0.20600
C1011       C  0.07069318  0.66837935  0.86525919    -0.32600
C1012       C  0.07288373  0.68268972  0.89237058     0.01300
C1013       C  0.09648602  0.69862280  0.89866609    -0.24000
C1014       C  0.17743886  0.71336247  0.81316016    -0.28500
C1015       C  0.17326863  0.70308431  0.78434518     0.07000
C1016       C  0.15048949  0.68577244  0.77823884    -0.27200
H1017       H  0.17936414  0.73248959  0.86880886     0.11700
H1018       H  0.14374004  0.72634163  0.90614810     0.12900
H1019       H  0.10492797  0.65448273  0.77227578     0.11900
H1020       H  0.07016553  0.64672892  0.81036393     0.11200
H1021       H  0.05263327  0.65582751  0.86051444     0.16600
H1022       H  0.09813903  0.70996343  0.91942451     0.12500
H1023       H  0.19491938  0.72667277  0.81811125     0.15300
H1024       H  0.14722033  0.67751428  0.75613185     0.15100
C1025       C  0.84932833  0.75172018  0.85593781    -0.17800
C1026       C  0.86956645  0.74759314  0.87779315    -0.19900
C1027       C  0.88821303  0.72500751  0.87581004     0.20700
C1028       C  0.88606322  0.70601181  0.85191673    -0.02800
C1029       C  0.86551135  0.71007099  0.82996009    -0.05900
C1030       C  0.84730324  0.73325349  0.83179109     0.21000
C1031       C  0.86339841  0.69111224  0.80603126     0.19200
C1032       C  0.88171747  0.66822850  0.80434780    -0.17400
C1033       C  0.90223803  0.66435924  0.82594231    -0.19600
C1034       C  0.90469485  0.68320352  0.84970588     0.20600
C1035       C  0.92568422  0.67989248  0.87103463    -0.32600
C1036       C  0.92834146  0.69912400  0.89450787     0.01300
C1037       C  0.90928168  0.72139261  0.89696687    -0.24000
C1038       C  0.82748917  0.73762242  0.80939880    -0.28500
C1039       C  0.82528652  0.71883628  0.78543328     0.07000
C1040       C  0.84314825  0.69546209  0.78410639    -0.27200
H1041       H  0.83537792  0.76949364  0.85781117     0.11700
H1042       H  0.87084936  0.76228350  0.89607495     0.12900
H1043       H  0.88034494  0.65345160  0.78615109     0.11900
H1044       H  0.91631751  0.64670920  0.82394566     0.11200
H1045       H  0.94021536  0.66258422  0.86925180     0.16600
H1046       H  0.91132035  0.73627596  0.91502111     0.12500
H1047       H  0.81352402  0.75544499  0.81083283     0.15300
H1048       H  0.84152208  0.68082879  0.76578640     0.15100
C1049       C  0.77001608  0.84694795  0.83904795    -0.17800
C1050       C  0.76750250  0.86750119  0.86099807    -0.19900
C1051       C  0.74527708  0.88648175  0.86044953     0.20700
C1052       C  0.72541674  0.88486831  0.83750227    -0.02800
C1053       C  0.72804900  0.86423544  0.81525401    -0.05900
C1054       C  0.75039055  0.84511846  0.81613737     0.21000
C1055       C  0.70855391  0.86300324  0.79192693     0.19200
C1056       C  0.68646218  0.88217173  0.79125413    -0.17400
C1057       C  0.68371059  0.90247324  0.81345360    -0.19600
C1058       C  0.70309799  0.90404943  0.83660015     0.20600
C1059       C  0.70078273  0.92464976  0.85866353    -0.32600
C1060       C  0.72063264  0.92638860  0.88137785     0.01300
C1061       C  0.74272864  0.90724471  0.88224324    -0.24000
C1062       C  0.75304812  0.82490307  0.79375043    -0.28500
C1063       C  0.73405153  0.82395128  0.77006122     0.07000
C1064       C  0.71179009  0.84299891  0.76938378    -0.27200
H1065       H  0.78740458  0.83256732  0.83989987     0.11700
H1066       H  0.78297335  0.86857921  0.87839013     0.12900
H1067       H  0.67135131  0.88153051  0.77347738     0.11900
H1068       H  0.66651276  0.91707783  0.81240328     0.11200
H1069       H  0.68384685  0.93961485  0.85803890     0.16600
H1070       H  0.75811449  0.90887989  0.89969791     0.12500
H1071       H  0.77060986  0.81069837  0.79408117     0.15300
H1072       H  0.69722717  0.84250954  0.75106019     0.15100
C1073       C  0.77162696  0.15336841  0.83657680    -0.17800
C1074       C  0.76866706  0.13320410  0.85880924    -0.19900
C1075       C  0.74713717  0.11372372  0.85741641     0.20700
C1076       C  0.72821259  0.11472274  0.83351552    -0.02800
C1077       C  0.73129332  0.13500974  0.81096592    -0.05900
C1078       C  0.75318255  0.15430332  0.81250085     0.21000
C1079       C  0.71288743  0.13555327  0.78658844     0.19200
C1080       C  0.69113392  0.11628721  0.78542294    -0.17400
C1081       C  0.68795138  0.09630453  0.80788898    -0.19600
C1082       C  0.70651369  0.09516748  0.83188449     0.20600
C1083       C  0.70398384  0.07467259  0.85410101    -0.32600
C1084       C  0.72299020  0.07341217  0.87777014     0.01300
C1085       C  0.74440402  0.09307689  0.87933010    -0.24000
C1086       C  0.75684101  0.17359782  0.78948208    -0.28500
C1087       C  0.73937680  0.17348750  0.76442617     0.07000
C1088       C  0.71708811  0.15473751  0.76341276    -0.27200
H1089       H  0.78859144  0.16800135  0.83800844     0.11700
H1090       H  0.78335334  0.13271540  0.87700465     0.12900
H1091       H  0.67675919  0.11644549  0.76693856     0.11900
H1092       H  0.67114058  0.08150886  0.80631397     0.11200
H1093       H  0.68743035  0.05952629  0.85295044     0.16600
H1094       H  0.75908612  0.09203212  0.89753297     0.12500
H1095       H  0.77420082  0.18779464  0.79045993     0.15300
H1096       H  0.70346550  0.15457120  0.74427072     0.15100
C1097       C  0.87772631  0.22255575  0.82284323    -0.17800
C1098       C  0.89925068  0.22298417  0.84349405    -0.19900
C1099       C  0.90963432  0.24866137  0.85372864     0.20700
C1100       C  0.89809449  0.27420947  0.84330779    -0.02800
C1101       C  0.87625737  0.27376598  0.82262957    -0.05900
C1102       C  0.86621888  0.24780120  0.81228184     0.21000
C1103       C  0.86455377  0.29924293  0.81225559     0.19200
C1104       C  0.87467890  0.32492252  0.82292664    -0.17400
C1105       C  0.89648299  0.32538180  0.84335861    -0.19600
C1106       C  0.90841498  0.30017155  0.85349110     0.20600
C1107       C  0.93044262  0.30039152  0.87366476    -0.32600
C1108       C  0.94178147  0.27501097  0.88406211     0.01300
C1109       C  0.93133338  0.24925854  0.87423334    -0.24000
C1110       C  0.84480994  0.24743786  0.79153286    -0.28500
C1111       C  0.83301348  0.27265294  0.78093403     0.07000
C1112       C  0.84295728  0.29853504  0.79142149    -0.27200
H1113       H  0.87009480  0.20247189  0.81509193     0.11700
H1114       H  0.90786268  0.20324481  0.85135403     0.12900
H1115       H  0.86583717  0.34465287  0.81534576     0.11900
H1116       H  0.90406760  0.34545432  0.85117630     0.11200
H1117       H  0.93856258  0.32018169  0.88171424     0.16600
H1118       H  0.94014826  0.22979354  0.88265058     0.12500
H1119       H  0.83728735  0.22731980  0.78371750     0.15300
H1120       H  0.83384111  0.31804228  0.78353724     0.15100
C1121       C  0.16247094  0.21831542  0.84238163    -0.17800
C1122       C  0.14149013  0.22081880  0.86322153    -0.19900
C1123       C  0.12437147  0.24469704  0.86349112     0.20700
C1124       C  0.12889868  0.26666010  0.84312713    -0.02800
C1125       C  0.15016512  0.26419311  0.82222152    -0.05900
C1126       C  0.16670935  0.23967902  0.82151923     0.21000
C1127       C  0.15415420  0.28576584  0.80130895     0.19200
C1128       C  0.13760550  0.31006281  0.80219840    -0.17400
C1129       C  0.11656388  0.31254431  0.82295707    -0.19600
C1130       C  0.11175344  0.29078302  0.84316229     0.20600
C1131       C  0.08997620  0.29257495  0.86321697    -0.32600
C1132       C  0.08531924  0.27064370  0.88323686     0.01300
C1133       C  0.10264173  0.24691541  0.88354392    -0.24000
C1134       C  0.18614016  0.23627120  0.79899402    -0.28500
C1135       C  0.18877270  0.25676920  0.77676563     0.07000
C1136       C  0.17356694  0.28200632  0.77888204    -0.27200
H1137       H  0.17500635  0.19938483  0.84217469     0.11700
H1138       H  0.13835282  0.20385514  0.87881168     0.12900
H1139       H  0.14050615  0.32686941  0.78636534     0.11900
H1140       H  0.10374507  0.33128006  0.82287199     0.11200
H1141       H  0.07674390  0.31102556  0.86350041     0.16600
H1142       H  0.09908371  0.23024703  0.89940422     0.12500
H1143       H  0.19772748  0.21676065  0.79757504     0.15300
H1144       H  0.17565121  0.29806712  0.76203631     0.15100
C1145       C  0.25710815  0.10834955  0.82407832    -0.17800
C1146       C  0.26538481  0.08842637  0.84513625    -0.19900
C1147       C  0.29272649  0.07877733  0.84613234     0.20700
C1148       C  0.31172183  0.08841685  0.82505936    -0.02800
C1149       C  0.30338978  0.10858891  0.80390523    -0.05900
C1150       C  0.27609558  0.11899780  0.80381889     0.21000
C1151       C  0.32264760  0.11914670  0.78364163     0.19200
C1152       C  0.34968066  0.10852534  0.78379228    -0.17400
C1153       C  0.35791824  0.08838376  0.80467141    -0.19600
C1154       C  0.33926664  0.07862042  0.82575278     0.20600
C1155       C  0.34776607  0.05977853  0.84794768    -0.32600
C1156       C  0.32907155  0.05102230  0.86942183     0.01300
C1157       C  0.30158655  0.06015639  0.86823355    -0.24000
C1158       C  0.26861626  0.14080431  0.78445388    -0.28500
C1159       C  0.28821753  0.15271173  0.76558844     0.07000
C1160       C  0.31489491  0.14103939  0.76451661    -0.27200
H1161       H  0.23604235  0.11598895  0.82415335     0.11700
H1162       H  0.25054112  0.08099026  0.86102871     0.12900
H1163       H  0.36464222  0.11629610  0.76821138     0.11900
H1164       H  0.37904213  0.08092033  0.80475559     0.11200
H1165       H  0.36889310  0.05231863  0.84894422     0.16600
H1166       H  0.28725873  0.05292951  0.88480618     0.12500
H1167       H  0.24791147  0.14942255  0.78516217     0.15300
H1168       H  0.33003740  0.14980082  0.74972315     0.15100
C1169       C  0.26182695  0.86983783  0.87297338    -0.17800
C1170       C  0.25272893  0.84737776  0.85551248    -0.19900
C1171       C  0.27161264  0.83086985  0.83973522     0.20700
C1172       C  0.30001759  0.83691455  0.84188765    -0.02800
C1173       C  0.30918056  0.85977200  0.85922010    -0.05900
C1174       C  0.28994014  0.87631256  0.87477419     0.21000
C1175       C  0.33752503  0.86632080  0.86061935     0.19200
C1176       C  0.35643652  0.84967137  0.84507726    -0.17400
C1177       C  0.34737846  0.82687883  0.82812230    -0.19600
C1178       C  0.31924006  0.82047207  0.82627302     0.20600
C1179       C  0.30997038  0.79837416  0.80841112    -0.32600
C1180       C  0.28163507  0.79279533  0.80520033     0.01300
C1181       C  0.26257045  0.80890847  0.82128348    -0.24000
C1182       C  0.29912762  0.89925336  0.89152673    -0.28500
C1183       C  0.32719062  0.90606239  0.89260043     0.07000
C1184       C  0.34636205  0.88956509  0.87726556    -0.27200
H1185       H  0.24682269  0.88236223  0.88481418     0.11700
H1186       H  0.23088331  0.84305350  0.85417010     0.12900
H1187       H  0.37822465  0.85436741  0.84590436     0.11900
H1188       H  0.36236934  0.81445366  0.81614429     0.11200
H1189       H  0.32489750  0.78623105  0.79601241     0.16600
H1190       H  0.24073525  0.80481700  0.81889908     0.12500
H1191       H  0.28446711  0.91217230  0.90344412     0.15300
H1192       H  0.36799735  0.89496937  0.87823151     0.15100
C1193       C  0.36382817  0.75092685  0.36387843    -0.17800
C1194       C  0.34687163  0.74317534  0.34010637    -0.19900
C1195       C  0.34757501  0.75820199  0.31340046     0.20700
C1196       C  0.36509664  0.78163263  0.31081889    -0.02800
C1197       C  0.38192505  0.78965250  0.33486779    -0.05900
C1198       C  0.38159278  0.77392745  0.36134823     0.21000
C1199       C  0.39969252  0.81288693  0.33208288     0.19200
C1200       C  0.40007573  0.82819063  0.30558706    -0.17400
C1201       C  0.38353059  0.82011188  0.28167578    -0.19600
C1202       C  0.36623936  0.79673401  0.28400553     0.20600
C1203       C  0.35025427  0.78808473  0.25986283    -0.32600
C1204       C  0.33279595  0.76476052  0.26218847     0.01300
C1205       C  0.33133838  0.75004572  0.28911076    -0.24000
C1206       C  0.39985096  0.78081160  0.38432638    -0.28500
C1207       C  0.41840899  0.80304458  0.38098002     0.07000
C1208       C  0.41761364  0.81965122  0.35537255    -0.27200
H1209       H  0.36333271  0.73869630  0.38409693     0.11700
H1210       H  0.33350502  0.72518019  0.34245841     0.12900
H1211       H  0.41357962  0.84606692  0.30315813     0.11900
H1212       H  0.38447299  0.83197494  0.26124060     0.11200
H1213       H  0.35124659  0.79972289  0.23926838     0.16600
H1214       H  0.31793292  0.73200955  0.29100394     0.12500
H1215       H  0.40065087  0.76808379  0.40423782     0.15300
H1216       H  0.43202345  0.83681080  0.35305752     0.15100
C1217       C  0.26846150  0.62750859  0.33296909    -0.17800
C1218       C  0.26198415  0.60742809  0.35433744    -0.19900
C1219       C  0.23656199  0.59362296  0.35324566     0.20700
C1220       C  0.21765907  0.59962001  0.33015435    -0.02800
C1221       C  0.22417263  0.61981466  0.30869841    -0.05900
C1222       C  0.24958551  0.63403512  0.31026011     0.21000
C1223       C  0.20492385  0.62627675  0.28612113     0.19200
C1224       C  0.17972139  0.61214255  0.28468348    -0.17400
C1225       C  0.17330226  0.59200941  0.30589363    -0.19600
C1226       C  0.19197932  0.58584527  0.32882435     0.20600
C1227       C  0.18526762  0.56643837  0.35070304    -0.32600
C1228       C  0.20385828  0.56082434  0.37378187     0.01300
C1229       C  0.22947596  0.57418287  0.37500889    -0.24000
C1230       C  0.25520725  0.65517094  0.28966269    -0.28500
C1231       C  0.23550435  0.66240706  0.26797824     0.07000
C1232       C  0.21078229  0.64741915  0.26588234    -0.27200
H1233       H  0.28804121  0.63822469  0.33444995     0.11700
H1234       H  0.27670612  0.60292944  0.37190266     0.12900
H1235       H  0.16481346  0.61694950  0.26738853     0.11900
H1236       H  0.15359063  0.58153043  0.30459412     0.11200
H1237       H  0.16557687  0.55583298  0.35005903     0.16600
H1238       H  0.24370451  0.56945035  0.39300095     0.12500
H1239       H  0.27428324  0.66679883  0.29134330     0.15300
H1240       H  0.19563207  0.65279800  0.24899273     0.15100
C1241       C  0.35241474  0.61244934  0.21510914    -0.17800
C1242       C  0.37289964  0.59179449  0.21457567    -0.19900
C1243       C  0.39298251  0.59212971  0.19253778     0.20700
C1244       C  0.39227605  0.61320246  0.17050873    -0.02800
C1245       C  0.37169773  0.63416711  0.17117511    -0.05900
C1246       C  0.35185258  0.63379812  0.19371796     0.21000
C1247       C  0.37140407  0.65585566  0.14982163     0.19200
C1248       C  0.39119793  0.65577607  0.12738312    -0.17400
C1249       C  0.41151366  0.63477787  0.12654265    -0.19600
C1250       C  0.41242215  0.61362843  0.14820580     0.20600
C1251       C  0.43324983  0.59307588  0.14825615    -0.32600
C1252       C  0.43411607  0.57240823  0.17044250     0.01300
C1253       C  0.41394735  0.57192465  0.19236757    -0.24000
C1254       C  0.33232520  0.65532124  0.19522617    -0.28500
C1255       C  0.33267077  0.67781624  0.17505717     0.07000
C1256       C  0.35189620  0.67767174  0.15194405    -0.27200
H1257       H  0.33727364  0.61200080  0.23255840     0.11700
H1258       H  0.37318633  0.57570232  0.23155540     0.12900
H1259       H  0.39119956  0.67216757  0.11072883     0.11900
H1260       H  0.42675359  0.63531100  0.10920406     0.11200
H1261       H  0.44889863  0.59317548  0.13131057     0.16600
H1262       H  0.41479583  0.55583821  0.20937847     0.12500
H1263       H  0.31766957  0.65518007  0.21317331     0.15300
H1264       H  0.35219166  0.69485544  0.13618980     0.15100
C1265       C  0.25604915  0.86648557  0.07587194    -0.17800
C1266       C  0.26568366  0.88403567  0.05360400    -0.19900
C1267       C  0.29056861  0.89837440  0.05738897     0.20700
C1268       C  0.30566896  0.89569295  0.08408135    -0.02800
C1269       C  0.29600249  0.87792508  0.10647500    -0.05900
C1270       C  0.27124404  0.86298752  0.10213025     0.21000
C1271       C  0.31164318  0.87420579  0.13264754     0.19200
C1272       C  0.33614097  0.88925608  0.13679530    -0.17400
C1273       C  0.34558827  0.90720956  0.11466478    -0.19600
C1274       C  0.33075298  0.91016786  0.08805314     0.20600
C1275       C  0.34063305  0.92701574  0.06514483    -0.32600
C1276       C  0.32575457  0.92919777  0.03850519     0.01300
C1277       C  0.30075771  0.91512534  0.03477906    -0.24000
C1278       C  0.26290540  0.84357082  0.12332946    -0.28500
C1279       C  0.27952610  0.83819957  0.14817581     0.07000
C1280       C  0.30324245  0.85434314  0.15341649    -0.27200
H1281       H  0.23705554  0.85511566  0.07226332     0.11700
H1282       H  0.25388641  0.88606520  0.03323319     0.12900
H1283       H  0.34828175  0.88667481  0.15686820     0.11900
H1284       H  0.36475635  0.91831924  0.11810413     0.11200
H1285       H  0.35976227  0.93838923  0.06786091     0.16600
H1286       H  0.28924059  0.91743959  0.01422269     0.12500
H1287       H  0.24466521  0.83105998  0.11930943     0.15300
H1288       H  0.31593335  0.85036383  0.17286883     0.15100
C1289       C  0.16751259  0.74857251  0.07078031    -0.17800
C1290       C  0.14801238  0.74301383  0.04852401    -0.19900
C1291       C  0.12521106  0.72594467  0.05431756     0.20700
C1292       C  0.12256546  0.71353969  0.08251780    -0.02800
C1293       C  0.14223243  0.71913915  0.10493265    -0.05900
C1294       C  0.16455267  0.73717074  0.09923016     0.21000
C1295       C  0.13904511  0.70737328  0.13330541     0.19200
C1296       C  0.11687961  0.68940230  0.13882274    -0.17400
C1297       C  0.09738160  0.68391727  0.11667906    -0.19600
C1298       C  0.09978215  0.69625823  0.08865387     0.20600
C1299       C  0.07935137  0.69233518  0.06699180    -0.32600
C1300       C  0.08126851  0.70559701  0.03935567     0.01300
C1301       C  0.10455264  0.72176644  0.03280764    -0.24000
C1302       C  0.18297799  0.74412523  0.12228633    -0.28500
C1303       C  0.17920812  0.73337544  0.15100068     0.07000
C1304       C  0.15755132  0.71441638  0.15598070    -0.27200
H1305       H  0.18461372  0.76226867  0.06590118     0.11700
H1306       H  0.15046980  0.75254334  0.02693965     0.12900
H1307       H  0.11428865  0.68006122  0.16048256     0.11900
H1308       H  0.08011674  0.67046714  0.12165976     0.11200
H1309       H  0.06147340  0.67966228  0.07183325     0.16600
H1310       H  0.10601077  0.73186070  0.01136996     0.12500
H1311       H  0.19972515  0.75847887  0.11805958     0.15300
H1312       H  0.15456727  0.70557320  0.17781797     0.15100
C1313       C  0.81010704  0.59046755  0.30849195    -0.17800
C1314       C  0.80829580  0.61184417  0.28724881    -0.19900
C1315       C  0.78986294  0.63443504  0.29087805     0.20700
C1316       C  0.77341928  0.63573685  0.31640128    -0.02800
C1317       C  0.77498392  0.61398304  0.33764777    -0.05900
C1318       C  0.79337844  0.59120285  0.33362785     0.21000
C1319       C  0.75788096  0.61486952  0.36269557     0.19200
C1320       C  0.73990948  0.63774580  0.36667926    -0.17400
C1321       C  0.73851465  0.65938739  0.34575065    -0.19600
C1322       C  0.75492924  0.65842137  0.32037690     0.20600
C1323       C  0.75238092  0.67917412  0.29841217    -0.32600
C1324       C  0.76761275  0.67727309  0.27212515     0.01300
C1325       C  0.78688747  0.65519283  0.26895813    -0.24000
C1326       C  0.79469933  0.56961233  0.35480786    -0.28500
C1327       C  0.77754089  0.57030826  0.37967690     0.07000
C1328       C  0.75904068  0.59288120  0.38331834    -0.27200
H1329       H  0.82438086  0.57318791  0.30508957     0.11700
H1330       H  0.82111442  0.61054632  0.26779992     0.12900
H1331       H  0.72678583  0.63881341  0.38590631     0.11900
H1332       H  0.72423903  0.67666231  0.34916862     0.11200
H1333       H  0.73743039  0.69597947  0.30114011     0.16600
H1334       H  0.79887830  0.65353896  0.24891767     0.12500
H1335       H  0.80915025  0.55234485  0.35213381     0.15300
H1336       H  0.74583343  0.59342564  0.40252642     0.15100
C1337       C  0.62245986  0.83566707  0.30938292    -0.17800
C1338       C  0.60110360  0.83875134  0.32966159    -0.19900
C1339       C  0.59144286  0.81540356  0.34531042     0.20700
C1340       C  0.60301608  0.78855081  0.34009185    -0.02800
C1341       C  0.62446893  0.78543738  0.31955956    -0.05900
C1342       C  0.63442616  0.80917321  0.30438886     0.21000
C1343       C  0.63626750  0.75867719  0.31462560     0.19200
C1344       C  0.62618173  0.73519898  0.32977916    -0.17400
C1345       C  0.60494074  0.73828386  0.35019425    -0.19600
C1346       C  0.59345129  0.76488223  0.35572134     0.20600
C1347       C  0.57279124  0.76832905  0.37682390    -0.32600
C1348       C  0.56159864  0.79504772  0.38226614     0.01300
C1349       C  0.57065110  0.81844640  0.36633772    -0.24000
C1350       C  0.65652004  0.80610720  0.28492796    -0.28500
C1351       C  0.66886465  0.77962772  0.28048127     0.07000
C1352       C  0.65830500  0.75593887  0.29507484    -0.27200
H1353       H  0.62981535  0.85406617  0.29782248     0.11700
H1354       H  0.59234975  0.85945761  0.33335260     0.12900
H1355       H  0.63495938  0.71449672  0.32611059     0.11900
H1356       H  0.59769200  0.71991326  0.36188580     0.11200
H1357       H  0.56540144  0.75035817  0.38912140     0.16600
H1358       H  0.56166658  0.83896201  0.37062896     0.12500
H1359       H  0.66443722  0.82446382  0.27371387     0.15300
H1360       H  0.66757454  0.73539756  0.29170561     0.15100
C1361       C  0.60603279  0.62149201  0.23783724    -0.17800
C1362       C  0.62579119  0.64271531  0.24012975    -0.19900
C1363       C  0.64199507  0.64979326  0.21569795     0.20700
C1364       C  0.63796630  0.63555410  0.18858131    -0.02800
C1365       C  0.61765455  0.61454327  0.18610646    -0.05900
C1366       C  0.60187474  0.60723096  0.21097143     0.21000
C1367       C  0.61325344  0.60077301  0.15878691     0.19200
C1368       C  0.62942921  0.60782633  0.13436556    -0.17400
C1369       C  0.65000727  0.62811914  0.13701966    -0.19600
C1370       C  0.65444108  0.64206051  0.16399679     0.20600
C1371       C  0.67532521  0.66209233  0.16689883    -0.32600
C1372       C  0.67956636  0.67629874  0.19380970     0.01300
C1373       C  0.66250502  0.67042817  0.21800696    -0.24000
C1374       C  0.58223970  0.58580911  0.20849142    -0.28500
C1375       C  0.57747761  0.57232595  0.18122705     0.07000
C1376       C  0.59280942  0.58016737  0.15638897    -0.27200
H1377       H  0.59397619  0.61624343  0.25709051     0.11700
H1378       H  0.62861317  0.65337966  0.26112068     0.12900
H1379       H  0.62635591  0.59742875  0.11326794     0.11900
H1380       H  0.66246119  0.63293042  0.11793452     0.11200
H1381       H  0.68842486  0.66658770  0.14821172     0.16600
H1382       H  0.66596794  0.68106241  0.23893142     0.12500
H1383       H  0.57024089  0.57987951  0.22758765     0.15300
H1384       H  0.58891593  0.56998970  0.13530246     0.15100
C1385       C  0.89512539  0.77478378  0.07562161    -0.17800
C1386       C  0.87402476  0.77750138  0.09622170    -0.19900
C1387       C  0.86553000  0.75412511  0.11264119     0.20700
C1388       C  0.87873693  0.72789124  0.10880682    -0.02800
C1389       C  0.90006856  0.72518084  0.08819941    -0.05900
C1390       C  0.90802611  0.74867619  0.07123871     0.21000
C1391       C  0.91297795  0.69880022  0.08406413     0.19200
C1392       C  0.90481134  0.67555782  0.10081809    -0.17400
C1393       C  0.88352999  0.67823005  0.12116424    -0.19600
C1394       C  0.87024237  0.70420668  0.12509285     0.20600
C1395       C  0.84827620  0.70676946  0.14464366    -0.32600
C1396       C  0.83474163  0.73270418  0.14818990     0.01300
C1397       C  0.84369983  0.75638745  0.13241457    -0.24000
C1398       C  0.92824987  0.74540285  0.04969441    -0.28500
C1399       C  0.94048194  0.71904224  0.04520755     0.07000
C1400       C  0.93333113  0.69598263  0.06268145    -0.27200
H1401       H  0.90110857  0.79299532  0.06285153     0.11700
H1402       H  0.86408921  0.79778562  0.09902093     0.12900
H1403       H  0.91460096  0.65522359  0.09785927     0.11900
H1404       H  0.87725824  0.65991174  0.13359537     0.11200
H1405       H  0.84151383  0.68846251  0.15680903     0.16600
H1406       H  0.83329860  0.77647429  0.13498849     0.12500
H1407       H  0.93412984  0.76305521  0.03599676     0.15300
H1408       H  0.94306917  0.67572657  0.05888380     0.15100
C1409       C  0.69198417  0.88815616  0.12657072    -0.17800
C1410       C  0.68885564  0.90655016  0.10255676    -0.19900
C1411       C  0.70896932  0.90784759  0.08052013     0.20700
C1412       C  0.73241751  0.89022995  0.08257675    -0.02800
C1413       C  0.73550583  0.87151625  0.10679952    -0.05900
C1414       C  0.71523601  0.87059328  0.12897937     0.21000
C1415       C  0.75893971  0.85393243  0.10893756     0.19200
C1416       C  0.77919733  0.85539916  0.08699823    -0.17400
C1417       C  0.77620812  0.87401517  0.06309529    -0.19600
C1418       C  0.75287848  0.89150133  0.06061460     0.20600
C1419       C  0.74979306  0.91050460  0.03686687    -0.32600
C1420       C  0.72663016  0.92837148  0.03498247     0.01300
C1421       C  0.70622477  0.92674664  0.05674145    -0.24000
C1422       C  0.71861630  0.85230821  0.15326982    -0.28500
C1423       C  0.74177900  0.83447332  0.15550951     0.07000
C1424       C  0.76179960  0.83539170  0.13307837    -0.27200
H1425       H  0.67620054  0.88772268  0.14333725     0.11700
H1426       H  0.67073851  0.91992611  0.10132638     0.12900
H1427       H  0.79741944  0.84217534  0.08836025     0.11900
H1428       H  0.79219301  0.87476829  0.04656119     0.11200
H1429       H  0.76563133  0.91191257  0.02020174     0.16600
H1430       H  0.68845558  0.94061739  0.05533921     0.12500
H1431       H  0.70317057  0.85190636  0.17041533     0.15300
H1432       H  0.77999617  0.82213528  0.13477121     0.15100
C1433       C  0.61804757  0.26325256  0.35323285    -0.17800
C1434       C  0.63833819  0.26651283  0.33184637    -0.19900
C1435       C  0.64451369  0.24447216  0.31233525     0.20700
C1436       C  0.63007207  0.21890568  0.31423662    -0.02800
C1437       C  0.60945195  0.21567188  0.33569882    -0.05900
C1438       C  0.60351504  0.23796721  0.35531346     0.21000
C1439       C  0.59487961  0.19014186  0.33762003     0.19200
C1440       C  0.60121154  0.16806585  0.31816292    -0.17400
C1441       C  0.62184884  0.17120155  0.29702800    -0.19600
C1442       C  0.63641090  0.19650758  0.29491648     0.20600
C1443       C  0.65749829  0.19967283  0.27419640    -0.32600
C1444       C  0.67222261  0.22499554  0.27251445     0.01300
C1445       C  0.66525875  0.24742358  0.29134912    -0.24000
C1446       C  0.58312117  0.23461537  0.37664942    -0.28500
C1447       C  0.56843741  0.20941623  0.37847493     0.07000
C1448       C  0.57428360  0.18722187  0.35897802    -0.27200
H1449       H  0.61371068  0.28052227  0.36815585     0.11700
H1450       H  0.64934067  0.28622355  0.33069614     0.12900
H1451       H  0.59027121  0.14832817  0.31936750     0.11900
H1452       H  0.62647770  0.15379321  0.28238525     0.11200
H1453       H  0.66270169  0.18229713  0.25971644     0.16600
H1454       H  0.67655230  0.26698449  0.29032804     0.12500
H1455       H  0.57842527  0.25164299  0.39178717     0.15300
H1456       H  0.56285246  0.16779132  0.36058729     0.15100
C1457       C  0.82141381  0.39843174  0.31872438    -0.17800
C1458       C  0.81941606  0.37829545  0.29621645    -0.19900
C1459       C  0.79728115  0.35946972  0.29534366     0.20700
C1460       C  0.77737007  0.36045009  0.31787618    -0.02800
C1461       C  0.77931861  0.38085740  0.34054644    -0.05900
C1462       C  0.80127829  0.40016339  0.34072534     0.21000
C1463       C  0.75893380  0.38238087  0.36258021     0.19200
C1464       C  0.73713630  0.36315817  0.36208146    -0.17400
C1465       C  0.73522541  0.34294734  0.33964630    -0.19600
C1466       C  0.75507018  0.34160017  0.31729443     0.20600
C1467       C  0.75243820  0.32241472  0.29383393    -0.32600
C1468       C  0.77147848  0.32213881  0.27049620     0.01300
C1469       C  0.79420253  0.34037030  0.27181419    -0.24000
C1470       C  0.80238064  0.42120649  0.36250789    -0.28500
C1471       C  0.78183574  0.42316137  0.38408375     0.07000
C1472       C  0.76041711  0.40345551  0.38431879    -0.27200
H1473       H  0.83848381  0.41297600  0.31863497     0.11700
H1474       H  0.83496170  0.37776081  0.27918894     0.12900
H1475       H  0.72133925  0.36399962  0.37882864     0.11900
H1476       H  0.71795612  0.32864262  0.33951365     0.11200
H1477       H  0.73474391  0.30865308  0.29303998     0.16600
H1478       H  0.80904442  0.34032689  0.25405250     0.12500
H1479       H  0.81896289  0.43635114  0.36253120     0.15300
H1480       H  0.74464175  0.40499359  0.40106564     0.15100
C1481       C  0.61177405  0.37373762  0.13346774    -0.17800
C1482       C  0.63401694  0.35493551  0.13517105    -0.19900
C1483       C  0.64941332  0.35225438  0.16146725     0.20700
C1484       C  0.64217082  0.36850937  0.18642413    -0.02800
C1485       C  0.61982651  0.38756037  0.18466250    -0.05900
C1486       C  0.60461223  0.39023875  0.15800092     0.21000
C1487       C  0.61289416  0.40411506  0.20948496     0.19200
C1488       C  0.62804996  0.40118771  0.23590615    -0.17400
C1489       C  0.65007281  0.38216438  0.23771890    -0.19600
C1490       C  0.65735349  0.36585269  0.21310025     0.20600
C1491       C  0.67957255  0.34696241  0.21464475    -0.32600
C1492       C  0.68691144  0.33100352  0.18982621     0.01300
C1493       C  0.67192858  0.33365675  0.16329660    -0.24000
C1494       C  0.58276087  0.40963342  0.15627251    -0.28500
C1495       C  0.57621579  0.42644890  0.18075908     0.07000
C1496       C  0.59114832  0.42353816  0.20731367    -0.27200
H1497       H  0.60028280  0.37551980  0.11287591     0.11700
H1498       H  0.63923442  0.34254425  0.11587552     0.12900
H1499       H  0.62293431  0.41370204  0.25514722     0.11900
H1500       H  0.66151655  0.38031892  0.25833905     0.11200
H1501       H  0.69129515  0.34470112  0.23507602     0.16600
H1502       H  0.67769288  0.32109770  0.14428082     0.12500
H1503       H  0.57115063  0.41211131  0.13581506     0.15300
H1504       H  0.58593626  0.43665607  0.22610039     0.15100
C1505       C  0.77517753  0.15159196  0.07661351    -0.17800
C1506       C  0.77195571  0.13198072  0.05379550    -0.19900
C1507       C  0.74929888  0.11385146  0.05335970     0.20700
C1508       C  0.72948729  0.11568902  0.07595817    -0.02800
C1509       C  0.73283832  0.13537579  0.09909739    -0.05900
C1510       C  0.75586198  0.15331576  0.09946176     0.21000
C1511       C  0.71353220  0.13661642  0.12221739     0.19200
C1512       C  0.69065075  0.11873753  0.12152870    -0.17400
C1513       C  0.68721726  0.09936189  0.09848877    -0.19600
C1514       C  0.70666343  0.09744770  0.07580183     0.20600
C1515       C  0.70403607  0.07725735  0.05331477    -0.32600
C1516       C  0.72402606  0.07503494  0.03117354     0.01300
C1517       C  0.74639321  0.09355094  0.03107467    -0.24000
C1518       C  0.75963347  0.17206677  0.12310999    -0.28500
C1519       C  0.74109657  0.17266104  0.14686889     0.07000
C1520       C  0.71785779  0.15513531  0.14601344    -0.27200
H1521       H  0.79300838  0.16515737  0.07661449     0.11700
H1522       H  0.78733909  0.13081349  0.03662512     0.12900
H1523       H  0.67557511  0.11948870  0.13903084     0.11900
H1524       H  0.66955021  0.08557920  0.09865205     0.11200
H1525       H  0.68681352  0.06287264  0.05326137     0.16600
H1526       H  0.76179777  0.09165354  0.01396556     0.12500
H1527       H  0.77773034  0.18528611  0.12367525     0.15300
H1528       H  0.70342026  0.15552833  0.16415709     0.15100
C1529       C  0.90319576  0.22297755  0.07460403    -0.17800
C1530       C  0.88266203  0.22130671  0.09591950    -0.19900
C1531       C  0.87260309  0.24578729  0.10947426     0.20700
C1532       C  0.88370404  0.27217023  0.10202931    -0.02800
C1533       C  0.90442953  0.27386280  0.08058408    -0.05900
C1534       C  0.91395634  0.24913996  0.06659745     0.21000
C1535       C  0.91529920  0.30030337  0.07280280     0.19200
C1536       C  0.90563092  0.32470276  0.08682017    -0.17400
C1537       C  0.88495173  0.32302036  0.10802127    -0.19600
C1538       C  0.87372140  0.29690597  0.11556483     0.20600
C1539       C  0.85224247  0.29516084  0.13588434    -0.32600
C1540       C  0.84051475  0.26902763  0.14269695     0.01300
C1541       C  0.85117585  0.24438542  0.12982067    -0.24000
C1542       C  0.93388090  0.25106837  0.04463454    -0.28500
C1543       C  0.94442279  0.27729968  0.03672284     0.07000
C1544       C  0.93542525  0.30182782  0.05092154    -0.27200
H1545       H  0.91045646  0.20384409  0.06415450     0.11700
H1546       H  0.87438617  0.20090503  0.10152186     0.12900
H1547       H  0.91384095  0.34511119  0.08114361     0.11900
H1548       H  0.87753010  0.34217780  0.11828994     0.11200
H1549       H  0.84418412  0.31425083  0.14576020     0.16600
H1550       H  0.84237375  0.22411467  0.13506510     0.12500
H1551       H  0.94128711  0.23225684  0.03362447     0.15300
H1552       H  0.94396836  0.32196214  0.04469517     0.15100
C1553       C  0.26450486  0.36646816  0.32626034    -0.17800
C1554       C  0.25846699  0.38504997  0.34926364    -0.19900
C1555       C  0.23106738  0.39021661  0.35723623     0.20700
C1556       C  0.20947256  0.37655193  0.34202652    -0.02800
C1557       C  0.21556969  0.35784014  0.31884899    -0.05900
C1558       C  0.24322219  0.35280240  0.31093446     0.21000
C1559       C  0.19400317  0.34427225  0.30354427     0.19200
C1560       C  0.16658888  0.34941963  0.31155400    -0.17400
C1561       C  0.16051550  0.36816700  0.33441416    -0.19600
C1562       C  0.18177537  0.38193507  0.34965086     0.20600
C1563       C  0.17585905  0.40160852  0.37177327    -0.32600
C1564       C  0.19732396  0.41561788  0.38631949    -0.02700
C1565       C  0.22481740  0.40943119  0.37957889    -0.24000
C1566       C  0.24912671  0.33401210  0.28799999    -0.28500
C1567       C  0.22774644  0.32017385  0.27291772     0.07000
C1568       C  0.20023003  0.32560907  0.28064228    -0.27200
H1569       H  0.28581532  0.36281069  0.32042779     0.11700
H1570       H  0.27521267  0.39553071  0.36068888     0.12900
H1571       H  0.14983487  0.33904614  0.30003239     0.11900
H1572       H  0.13919248  0.37204972  0.34003723     0.11200
H1573       H  0.15469035  0.40678660  0.37702661     0.16600
H1574       H  0.24121004  0.42069491  0.39081109     0.12500
H1575       H  0.27037868  0.32985323  0.28221812     0.15300
H1576       H  0.18360265  0.31491967  0.26920712     0.15100
C1577       C  0.34305899  0.25386935  0.33841631    -0.17800
C1578       C  0.36135838  0.24948019  0.36203678    -0.19900
C1579       C  0.38328508  0.23034186  0.35930054     0.20700
C1580       C  0.38642904  0.21490313  0.33287844    -0.02800
C1581       C  0.36845636  0.21986114  0.30885015    -0.05900
C1582       C  0.34674725  0.23953132  0.31159554     0.21000
C1583       C  0.37264620  0.20562853  0.28186927     0.19200
C1584       C  0.39415850  0.18599549  0.27937534    -0.17400
C1585       C  0.41158133  0.18056671  0.30345653    -0.19600
C1586       C  0.40801968  0.19508927  0.33015087     0.20600
C1587       C  0.42631557  0.19092339  0.35378353    -0.32600
C1588       C  0.42460707  0.20783980  0.37916135     0.01300
C1589       C  0.40273424  0.22710676  0.38205955    -0.24000
C1590       C  0.32953724  0.24499089  0.28724747    -0.28500
C1591       C  0.33414424  0.23144330  0.26005294     0.07000
C1592       C  0.35555936  0.21159827  0.25765831    -0.27200
H1593       H  0.32641044  0.26894221  0.34089034     0.11700
H1594       H  0.35856964  0.26129470  0.38230470     0.12900
H1595       H  0.39759654  0.17495149  0.25874885     0.11900
H1596       H  0.42821028  0.16547067  0.30100215     0.11200
H1597       H  0.44295891  0.17574441  0.35180875     0.16600
H1598       H  0.40137939  0.24013948  0.40168998     0.12500
H1599       H  0.31305318  0.26033587  0.28928317     0.15300
H1600       H  0.35915264  0.20091846  0.23683835     0.15100
C1601       C  0.36519326  0.41278074  0.21169565    -0.17800
C1602       C  0.34502143  0.39181769  0.21233984    -0.19900
C1603       C  0.34754323  0.36762825  0.19468792     0.20700
C1604       C  0.37046766  0.36487601  0.17586664    -0.02800
C1605       C  0.39078330  0.38600031  0.17519400    -0.05900
C1606       C  0.38827767  0.40995951  0.19339490     0.21000
C1607       C  0.41378736  0.38292128  0.15655220     0.19200
C1608       C  0.41628307  0.35892096  0.13875554    -0.17400
C1609       C  0.39628749  0.33799389  0.13953285    -0.19600
C1610       C  0.37340930  0.34076037  0.15804357     0.20600
C1611       C  0.35384202  0.31940739  0.15947588    -0.32600
C1612       C  0.33134606  0.32129596  0.17884251     0.01300
C1613       C  0.32803380  0.34582546  0.19603252    -0.24000
C1614       C  0.40908510  0.43040306  0.19320461    -0.28500
C1615       C  0.43220982  0.42725446  0.17485136     0.07000
C1616       C  0.43408414  0.40370151  0.15622360    -0.27200
H1617       H  0.36286082  0.43109562  0.22573300     0.11700
H1618       H  0.32759467  0.39438933  0.22690146     0.12900
H1619       H  0.43384750  0.35620921  0.12440961     0.11900
H1620       H  0.39883942  0.31949793  0.12580001     0.11200
H1621       H  0.35669473  0.30079745  0.14596700     0.16600
H1622       H  0.31092634  0.34752181  0.21116769     0.12500
H1623       H  0.40749647  0.44865845  0.20747148     0.15300
H1624       H  0.45162374  0.40144485  0.14173049     0.15100
C1625       C  0.14464514  0.22753759  0.05146482    -0.17800
C1626       C  0.16338877  0.22218378  0.07439956    -0.19900
C1627       C  0.16318519  0.23881212  0.10002075     0.20700
C1628       C  0.14406406  0.26114229  0.10259834    -0.02800
C1629       C  0.12546889  0.26678591  0.07934992    -0.05900
C1630       C  0.12564556  0.24972051  0.05379464     0.21000
C1631       C  0.10641506  0.28920110  0.08187867     0.19200
C1632       C  0.10598756  0.30560936  0.10763359    -0.17400
C1633       C  0.12426221  0.29979079  0.13088023    -0.19600
C1634       C  0.14332714  0.27765148  0.12852661     0.20600
C1635       C  0.16158416  0.27162804  0.15172632    -0.32600
C1636       C  0.18076408  0.24958160  0.14915644     0.01300
C1637       C  0.18160295  0.23334625  0.12324375    -0.24000
C1638       C  0.10630926  0.25468906  0.03137498    -0.28500
C1639       C  0.08707286  0.27658309  0.03414559     0.07000
C1640       C  0.08762835  0.29428986  0.05892049    -0.27200
H1641       H  0.14492211  0.21426967  0.03197157     0.11700
H1642       H  0.17789659  0.20491666  0.07220715     0.12900
H1643       H  0.09133689  0.32273812  0.10991317     0.11900
H1644       H  0.12347347  0.31257591  0.15070761     0.11200
H1645       H  0.16099000  0.28421117  0.17172832     0.16600
H1646       H  0.19619327  0.21608341  0.12141670     0.12500
H1647       H  0.10556078  0.24103483  0.01215744     0.15300
H1648       H  0.07258860  0.31114202  0.06078667     0.15100
C1649       C  0.26834761  0.13915412  0.05709050    -0.17800
C1650       C  0.27800499  0.12243997  0.03389083    -0.19900
C1651       C  0.30280003  0.10737027  0.03691250     0.20700
C1652       C  0.31811745  0.10919984  0.06354195    -0.02800
C1653       C  0.30832706  0.12597412  0.08696987    -0.05900
C1654       C  0.28333462  0.14107721  0.08369304     0.21000
C1655       C  0.32363281  0.12777151  0.11357427     0.19200
C1656       C  0.34824883  0.11241558  0.11679401    -0.17400
C1657       C  0.35780647  0.09554673  0.09368250    -0.19600
C1658       C  0.34295177  0.09388174  0.06696163     0.20600
C1659       C  0.35179343  0.07618160  0.04410714    -0.32600
C1660       C  0.33577214  0.07313609  0.01824665     0.01300
C1661       C  0.31186651  0.08948153  0.01432434    -0.24000
C1662       C  0.27421459  0.15848436  0.10672188    -0.28500
C1663       C  0.29015722  0.16144912  0.13258680     0.07000
C1664       C  0.31446192  0.14552386  0.13616322    -0.27200
H1665       H  0.24918124  0.15065485  0.05418720     0.11700
H1666       H  0.26596159  0.12113343  0.01363727     0.12900
H1667       H  0.36016151  0.11353314  0.13715495     0.11900
H1668       H  0.37676397  0.08371929  0.09674369     0.11200
H1669       H  0.36996001  0.06309870  0.04724883     0.16600
H1670       H  0.29929617  0.08663511  0.99460324     0.12500
H1671       H  0.25558405  0.17091555  0.10384975     0.15300
H1672       H  0.32671281  0.14765213  0.15622168     0.15100
C1673       C  0.12068975  0.87304047  0.30600438    -0.17800
C1674       C  0.14055901  0.85211761  0.30119263    -0.19900
C1675       C  0.15038994  0.84693764  0.27257187     0.20700
C1676       C  0.14038536  0.86323096  0.24862161    -0.02800
C1677       C  0.11990507  0.88378083  0.25334503    -0.05900
C1678       C  0.11001373  0.88876890  0.28219867     0.21000
C1679       C  0.10911697  0.89910826  0.22909639     0.19200
C1680       C  0.11941444  0.89452444  0.20062108    -0.17400
C1681       C  0.14008792  0.87455115  0.19603461    -0.19600
C1682       C  0.15047904  0.85866091  0.21980603     0.20600
C1683       C  0.17031801  0.83780804  0.21509118    -0.32600
C1684       C  0.17950364  0.82079249  0.23854887     0.01300
C1685       C  0.16964005  0.82544487  0.26728660    -0.24000
C1686       C  0.08958635  0.90932222  0.28659275    -0.28500
C1687       C  0.07858097  0.92415103  0.26232724     0.07000
C1688       C  0.08817977  0.91876781  0.23370939    -0.27200
H1689       H  0.11339482  0.87665110  0.32827675     0.11700
H1690       H  0.14815950  0.83991191  0.31983512     0.12900
H1691       H  0.11142186  0.90634319  0.18188321     0.11900
H1692       H  0.14766240  0.87123101  0.17381971     0.11200
H1693       H  0.17771296  0.83391986  0.19287607     0.16600
H1694       H  0.17686021  0.81226855  0.28538268     0.12500
H1695       H  0.08213795  0.91374787  0.30865847     0.15300
H1696       H  0.07965503  0.93049937  0.21513873     0.15100
C1697       C  0.84715196  0.89154061  0.28938082    -0.17800
C1698       C  0.86924990  0.90987480  0.29319565    -0.19900
C1699       C  0.89243479  0.90768674  0.27508193     0.20700
C1700       C  0.89364274  0.88650682  0.25322314    -0.02800
C1701       C  0.87137731  0.86791682  0.24946639    -0.05900
C1702       C  0.84792500  0.87068846  0.26743725     0.21000
C1703       C  0.87235799  0.84695301  0.22738583     0.19200
C1704       C  0.89574932  0.84454665  0.20952475    -0.17400
C1705       C  0.91777950  0.86309176  0.21313303    -0.19600
C1706       C  0.91681725  0.88428172  0.23472695     0.20600
C1707       C  0.93828705  0.90368139  0.23775968    -0.32600
C1708       C  0.93686575  0.92508235  0.25915635     0.01300
C1709       C  0.91415707  0.92669011  0.27803448    -0.24000
C1710       C  0.82541882  0.85292680  0.26283274    -0.28500
C1711       C  0.82594913  0.83230091  0.24052634     0.07000
C1712       C  0.84971774  0.82915711  0.22318403    -0.27200
H1713       H  0.82931102  0.89386647  0.30340094     0.11700
H1714       H  0.86805338  0.92601022  0.31007342     0.12900
H1715       H  0.89685609  0.82854342  0.19249969     0.11900
H1716       H  0.93545017  0.86104631  0.19882245     0.11200
H1717       H  0.95583782  0.90259331  0.22314794     0.16600
H1718       H  0.91318970  0.94324787  0.29450228     0.12500
H1719       H  0.80733921  0.85537907  0.27649577     0.15300
H1720       H  0.85034064  0.81337224  0.20588656     0.15100
C1721       C  0.85513913  0.11885542  0.28935159    -0.17800
C1722       C  0.87683056  0.09965314  0.29319414    -0.19900
C1723       C  0.89594999  0.09524130  0.27054856     0.20700
C1724       C  0.89353530  0.11076391  0.24398743    -0.02800
C1725       C  0.87175148  0.13024595  0.24018781    -0.05900
C1726       C  0.85226420  0.13402296  0.26283882     0.21000
C1727       C  0.86924760  0.14561049  0.21355099     0.19200
C1728       C  0.88856623  0.14147200  0.19105078    -0.17400
C1729       C  0.91005866  0.12204727  0.19474180    -0.19600
C1730       C  0.91264610  0.10653290  0.22103271     0.20600
C1731       C  0.93381510  0.08664401  0.22464675    -0.32600
C1732       C  0.93609980  0.07099590  0.25087976     0.01300
C1733       C  0.91724751  0.07537638  0.27379820    -0.24000
C1734       C  0.83003622  0.15257773  0.25839285    -0.28500
C1735       C  0.82730213  0.16775695  0.23180626     0.07000
C1736       C  0.84722025  0.16449475  0.20967902    -0.27200
H1737       H  0.84045608  0.12165752  0.30702614     0.11700
H1738       H  0.87848011  0.08802477  0.31376313     0.12900
H1739       H  0.88690409  0.15308148  0.17046862     0.11900
H1740       H  0.92458139  0.11904113  0.17695026     0.11200
H1741       H  0.94840290  0.08303214  0.20701257     0.16600
H1742       H  0.91914092  0.06315753  0.29398517     0.12500
H1743       H  0.81483958  0.15522273  0.27560661     0.15300
H1744       H  0.84509940  0.17603193  0.18906909     0.15100
C1745       C  0.14592722  0.13436773  0.28971967    -0.17800
C1746       C  0.12334196  0.11675119  0.29324445    -0.19900
C1747       C  0.11275135  0.10175400  0.26905202     0.20700
C1748       C  0.12538230  0.10398934  0.24111050    -0.02800
C1749       C  0.14839558  0.12152599  0.23763676    -0.05900
C1750       C  0.15833394  0.13711717  0.26198640     0.21000
C1751       C  0.16087064  0.12418310  0.20965811     0.19200
C1752       C  0.15063402  0.10858071  0.18562234    -0.17400
C1753       C  0.12776875  0.09114615  0.18906840    -0.19600
C1754       C  0.11479757  0.08902174  0.21660494     0.20600
C1755       C  0.09157717  0.07206470  0.22022444    -0.32600
C1756       C  0.07933415  0.06951792  0.24814688     0.01300
C1757       C  0.08987783  0.08440009  0.27239326    -0.24000
C1758       C  0.17958915  0.15630129  0.25790705    -0.28500
C1759       C  0.19093340  0.16043034  0.22978909     0.07000
C1760       C  0.18236819  0.14348234  0.20596072    -0.27200
H1761       H  0.15341718  0.14621554  0.30859417     0.11700
H1762       H  0.11394130  0.11512408  0.31482079     0.12900
H1763       H  0.15997791  0.11028064  0.16402498     0.11900
H1764       H  0.12005000  0.07955444  0.17012138     0.11200
H1765       H  0.08353051  0.06005312  0.20170784     0.16600
H1766       H  0.08052141  0.08195716  0.29392865     0.12500
H1767       H  0.18628689  0.16927541  0.27632343     0.15300
H1768       H  0.19090786  0.14684064  0.18417096     0.15100
loop_ 
_geom_bond_atom_site_label_1 
_geom_bond_atom_site_label_2 
_geom_bond_distance 
_geom_bond_site_symmetry_2 
_ccdc_geom_bond_type 
N1            C6   1.354       .  A
N1            C5   1.354   1_565  A
N1           H33   1.039       .  S
N2            C9   1.350   1_455  A
N2           C10   1.351       .  A
N3            C8   1.352       .  A
N3            C7   1.352   1_565  A
N3           H34   1.034       .  S
N4           C11   1.349   1_455  A
N4           C12   1.350       .  A
C5           C13   1.386       .  A
C5           C21   1.414       .  A
C6           C22   1.417       .  A
C6           C14   1.388       .  A
C7           C15   1.388       .  A
C7           C24   1.415       .  A
C8           C23   1.416       .  A
C8           C16   1.388       .  A
C9           C21   1.411       .  A
C9           C17   1.386       .  A
C10          C24   1.413       .  A
C10          C18   1.386       .  A
C11          C19   1.386       .  A
C11          C22   1.411       .  A
C12          C20   1.387       .  A
C12          C23   1.411       .  A
C13          C14   1.373   1_545  A
C13          H25   1.082       .  S
C14          H26   1.082       .  S
C15          C16   1.367   1_545  A
C15          H27   1.082       .  S
C16          H28   1.082       .  S
C17          C18   1.373   1_655  A
C17          H29   1.082       .  S
C18          H30   1.082       .  S
C19          C20   1.372   1_655  A
C19          H31   1.082       .  S
C20          H32   1.082       .  S
C21        C1732   1.482       .  S
C22        C1708   1.485       .  S
C23        C1687   1.479       .  S
C24        C1756   1.479       .  S
O35         Ni41   1.914       .  S
O35          C56   1.266       .  A
O36         Ni59   1.911       .  S
O36          C45   1.267       .  A
O37         Ni41   1.899       .  S
O37         Ni59   1.904       .  S
O37         Ni53   1.919       .  S
O37          H60   0.968       .  S
C38        C1612   1.489       .  S
C38          O55   1.279       .  A
C38          O47   1.277       .  A
O39         Ni58   1.922       .  S
O39          C45   1.267       .  A
O40         Ni58   1.893       .  S
O40          C42   1.265       .  A
Ni41         O44   1.910       .  S
Ni41         O46   1.895       .  S
C42        C1591   1.471       .  S
C42          O52   1.267       .  A
O43         Ni59   1.928       .  S
O43          C49   1.278       .  A
O44          C49   1.276       .  A
C45        C1663   1.472       .  S
O46          C48   1.266       .  A
O47         Ni58   1.919       .  S
C48        C1636   1.464       .  S
C48          O54   1.268       .  A
C49        C1759   1.473       .  S
H50          O51   0.964       .  S
O51         Ni59   1.916       .  S
O51         Ni53   1.906       .  S
O51         Ni58   1.900       .  S
O52         Ni53   1.911       .  S
Ni53         O57   1.904       .  S
Ni53         O55   1.929       .  S
O54         Ni59   1.908       .  S
C56        C1567   1.472       .  S
C56          O57   1.266       .  A
O61         Ni67   1.933       .  S
O61          C82   1.272       .  A
O62         Ni85   1.887       .  S
O62          C71   1.264       .  A
O63         Ni67   1.914       .  S
O63         Ni85   1.899       .  S
O63         Ni79   1.905       .  S
O63          H86   0.966       .  S
C64        C1492   1.463       .  S
C64          O81   1.271       .  A
C64          O73   1.276       .  A
O65         Ni84   1.934       .  S
O65          C71   1.273       .  A
O66         Ni84   1.912       .  S
O66          C68   1.270       .  A
Ni67         O70   1.927       .  S
Ni67         O72   1.913       .  S
C68        C1468   1.488       .  S
C68          O78   1.273       .  A
O69         Ni85   1.913       .  S
O69          C75   1.275       .  A
O70          C75   1.277       .  A
C71        C1540   1.474       .  S
O72          C74   1.270       .  A
O73         Ni84   1.933       .  S
C74        C1519   1.484       .  S
C74          O80   1.271       .  A
C75        C1735   1.477       .  S
H76          O77   0.966       .  S
O77         Ni85   1.909       .  S
O77         Ni79   1.902       .  S
O77         Ni84   1.916       .  S
O78         Ni79   1.930       .  S
Ni79         O83   1.893       .  S
Ni79         O81   1.903       .  S
O80         Ni85   1.925       .  S
C82        C1444   1.477       .  S
C82          O83   1.265       .  A
O87         Ni93   1.929       .  S
O87         C108   1.271       .  A
O88        Ni111   1.892       .  S
O88          C97   1.267       .  A
O89         Ni93   1.913       .  S
O89        Ni111   1.905       .  S
O89        Ni105   1.913       .  S
O89         H112   0.967       .  S
C90        C1711   1.482       .  S
C90         O107   1.275       .  A
C90          O99   1.280       .  A
O91        Ni110   1.937       .  S
O91          C97   1.276       .  A
O92        Ni110   1.923       .  S
O92          C94   1.271       .  A
Ni93         O96   1.924       .  S
Ni93         O98   1.908       .  S
C94        C1423   1.491       .  S
C94         O104   1.270       .  A
O95        Ni111   1.919       .  S
O95         C101   1.275       .  A
O96         C101   1.276       .  A
C97        C1351   1.478       .  S
O98         C100   1.269       .  A
O99        Ni110   1.930       .  S
C100       C1324   1.487       .  S
C100        O106   1.274       .  A
C101       C1372   1.478       .  S
H102        O103   0.966       .  S
O103       Ni111   1.905       .  S
O103       Ni105   1.893       .  S
O103       Ni110   1.908       .  S
O104       Ni105   1.925       .  S
Ni105       O109   1.884       .  S
Ni105       O107   1.911       .  S
O106       Ni111   1.932       .  S
C108       C1396   1.470       .  S
C108        O109   1.261       .  A
O113       Ni119   1.920       .  S
O113        C134   1.268       .  A
O114       Ni137   1.897       .  S
O114        C123   1.265       .  A
O115       Ni119   1.893       .  S
O115       Ni137   1.885       .  S
O115       Ni131   1.908       .  S
O115        H138   0.966       .  S
C116       C1684   1.466       .  S
C116        O133   1.278       .  A
C116        O125   1.277       .  A
O117       Ni136   1.917       .  S
O117        C123   1.269       .  A
O118       Ni136   1.899       .  S
O118        C120   1.268       .  A
Ni119       O122   1.926       .  S
Ni119       O124   1.898       .  S
C120       C1303   1.487       .  S
C120        O130   1.274       .  A
O121       Ni137   1.904       .  S
O121        C127   1.277       .  A
O122        C127   1.280       .  A
C123       C1231   1.465       .  S
O124        C126   1.265       .  A
O125       Ni136   1.920       .  S
C126       C1204   1.473       .  S
C126        O132   1.268       .  A
C127       C1255   1.476       .  S
H128        O129   0.966       .  S
O129       Ni137   1.905       .  S
O129       Ni131   1.890       .  S
O129       Ni136   1.887       .  S
O130       Ni131   1.936       .  S
Ni131       O135   1.900       .  S
Ni131       O133   1.913       .  S
O132       Ni137   1.917       .  S
C134       C1279   1.463       .  S
C134        O135   1.269       .  A
N139        C144   1.348       .  A
N139        C143   1.351       .  A
N139        H171   1.036       .  S
N140        C147   1.353       .  A
N140        C148   1.350   1_565  A
N141        C146   1.354       .  A
N141        C145   1.349       .  A
N141        H172   1.036       .  S
N142        C149   1.349       .  A
N142        C150   1.350   1_565  A
C143        C151   1.387       .  A
C143        C159   1.410       .  A
C144        C160   1.409   1_556  A
C144        C152   1.387       .  A
C145        C153   1.388       .  A
C145        C162   1.414       .  A
C146        C161   1.413       .  A
C146        C154   1.385       .  A
C147        C159   1.413       .  A
C147        C155   1.385       .  A
C148        C162   1.413       .  A
C148        C156   1.387   1_545  A
C149        C157   1.386       .  A
C149        C160   1.406       .  A
C150        C158   1.388       .  A
C150        C161   1.410   1_554  A
C151        C152   1.376       .  A
C151        H163   1.082       .  S
C152        H164   1.083   1_556  S
C153        C154   1.379       .  A
C153        H165   1.082       .  S
C154        H166   1.082       .  S
C155        C156   1.372       .  A
C155        H167   1.082       .  S
C156        H168   1.082   1_565  S
C157        C158   1.366   1_565  A
C157        H169   1.082       .  S
C158        H170   1.082       .  S
C159       C1183   1.481       .  S
C160       C1276   1.470       .  S
C161       C1660   1.483   1_556  S
C162       C1156   1.475       .  S
N173        C178   1.350       .  A
N173        C177   1.351       .  A
N173        H205   1.037       .  S
N174        C181   1.348   1_455  A
N174        C182   1.346       .  A
N175        C180   1.350       .  A
N175        C179   1.349       .  A
N175        H206   1.039       .  S
N176        C183   1.348   1_455  A
N176        C184   1.350       .  A
C177        C185   1.385       .  A
C177        C193   1.408   1_556  A
C178        C194   1.414       .  A
C178        C186   1.390       .  A
C179        C187   1.386       .  A
C179        C196   1.407   1_556  A
C180        C195   1.408       .  A
C180        C188   1.387       .  A
C181        C193   1.403       .  A
C181        C189   1.385   1_655  A
C182        C196   1.407       .  A
C182        C190   1.388       .  A
C183        C191   1.388       .  A
C183        C194   1.413       .  A
C184        C192   1.385       .  A
C184        C195   1.410       .  A
C185        C186   1.373       .  A
C185        H197   1.082       .  S
C186        H198   1.082       .  S
C187        C188   1.374       .  A
C187        H199   1.082       .  S
C188        H200   1.082       .  S
C189        C190   1.368       .  A
C189        H201   1.082   1_455  S
C190        H202   1.082       .  S
C191        C192   1.375   1_655  A
C191        H203   1.082       .  S
C192        H204   1.082       .  S
C193       C1543   1.470       .  S
C194       C1108   1.473       .  S
C195       C1132   1.478       .  S
C196       C1639   1.470       .  S
N207        C212   1.354       .  A
N207        C211   1.352       .  A
N207        H239   1.038       .  S
N208        C215   1.352       .  A
N208        C216   1.354   1_545  A
N209        C214   1.352       .  A
N209        C213   1.356       .  A
N209        H240   1.038       .  S
N210        C217   1.354       .  A
N210        C218   1.351   1_545  A
C211        C219   1.388       .  A
C211        C227   1.416   1_556  A
C212        C228   1.416       .  A
C212        C220   1.386       .  A
C213        C221   1.386       .  A
C213        C230   1.416   1_556  A
C214        C229   1.417       .  A
C214        C222   1.388       .  A
C215        C227   1.416       .  A
C215        C223   1.387       .  A
C216        C230   1.415       .  A
C216        C224   1.385       .  A
C217        C225   1.385       .  A
C217        C228   1.414       .  A
C218        C226   1.388       .  A
C218        C229   1.415       .  A
C219        C220   1.376       .  A
C219        H231   1.082       .  S
C220        H232   1.082       .  S
C221        C222   1.378       .  A
C221        H233   1.082       .  S
C222        H234   1.082       .  S
C223        C224   1.372   1_545  A
C223        H235   1.082       .  S
C224        H236   1.082       .  S
C225        C226   1.372   1_545  A
C225        H237   1.082       .  S
C226        H238   1.082       .  S
C227       C1516   1.485       .  S
C228       C1084   1.492       .  S
C229       C1060   1.483       .  S
C230       C1420   1.494       .  S
N241        C246   1.346       .  A
N241        C245   1.353       .  A
N241        H273   1.041       .  S
N242        C249   1.348       .  A
N242        C250   1.344   1_455  A
N243        C248   1.352       .  A
N243        C247   1.349       .  A
N243        H274   1.041       .  S
N244        C251   1.350       .  A
N244        C252   1.352   1_455  A
C245        C253   1.384       .  A
C245        C261   1.409   1_556  A
C246        C262   1.411       .  A
C246        C254   1.389       .  A
C247        C255   1.389       .  A
C247        C264   1.412   1_556  A
C248        C263   1.410       .  A
C248        C256   1.385       .  A
C249        C261   1.408       .  A
C249        C257   1.386       .  A
C250        C264   1.404       .  A
C250        C258   1.387       .  A
C251        C259   1.388       .  A
C251        C262   1.415       .  A
C252        C260   1.384       .  A
C252        C263   1.411       .  A
C253        C254   1.378       .  A
C253        H265   1.082       .  S
C254        H266   1.082       .  S
C255        C256   1.377       .  A
C255        H267   1.082   1_556  S
C256        H268   1.082       .  S
C257        C258   1.375   1_455  A
C257        H269   1.082       .  S
C258        H270   1.082       .  S
C259        C260   1.374   1_455  A
C259        H271   1.081       .  S
C260        H272   1.082       .  S
C261       C1300   1.485       .  S
C262       C1012   1.484       .  S
C263       C1036   1.492       .  S
C264       C1399   1.466       .  S
O275       Ni281   1.905       .  S
O275        C296   1.265       .  A
O276       Ni299   1.906       .  S
O276        C285   1.267       .  A
O277       Ni281   1.897       .  S
O277       Ni299   1.892       .  S
O277       Ni293   1.916       .  S
O277        H300   0.967       .  S
C278       C1015   1.475       .  S
C278        O295   1.278       .  A
C278        O287   1.278       .  A
O279       Ni298   1.917       .  S
O279        C285   1.268       .  A
O280       Ni298   1.910       .  S
O280        C282   1.269       .  A
Ni281       O284   1.914       .  S
Ni281       O286   1.908       .  S
C282        C988   1.489       .  S
C282        O292   1.274       .  A
O283       Ni299   1.913       .  S
O283        C289   1.280       .  A
O284        C289   1.278       .  A
C285        C916   1.477       .  S
O286        C288   1.268       .  A
O287       Ni298   1.919       .  S
C288        C964   1.494       .  S
C288        O294   1.273       .  A
C289        C940   1.474       .  S
H290        O291   0.967       .  S
O291       Ni299   1.916       .  S
O291       Ni293   1.908       .  S
O291       Ni298   1.907       .  S
O292       Ni293   1.939       .  S
Ni293       O297   1.927       .  S
Ni293       O295   1.908       .  S
O294       Ni299   1.941       .  S
C296       C1180   1.482       .  S
C296        O297   1.271       .  A
N301        C306   1.354       .  A
N301        C305   1.360   1_565  A
N301        H333   1.037       .  S
N302        C309   1.356   1_455  A
N302        C310   1.351       .  A
N303        C308   1.358       .  A
N303        C307   1.350   1_565  A
N303        H334   1.029       .  S
N304        C311   1.350   1_455  A
N304        C312   1.356       .  A
C305        C313   1.384       .  A
C305        C321   1.420       .  A
C306        C322   1.423       .  A
C306        C314   1.390       .  A
C307        C315   1.390   1_545  A
C307        C324   1.421       .  A
C308        C323   1.424       .  A
C308        C316   1.387       .  A
C309        C321   1.416       .  A
C309        C317   1.383       .  A
C310        C324   1.423       .  A
C310        C318   1.390       .  A
C311        C319   1.388       .  A
C311        C322   1.420       .  A
C312        C320   1.386       .  A
C312        C323   1.422       .  A
C313        C314   1.373   1_545  A
C313        H325   1.082       .  S
C314        H326   1.082       .  S
C315        C316   1.372       .  A
C315        H327   1.082   1_565  S
C316        H328   1.082       .  S
C317        C318   1.371   1_655  A
C317        H329   1.082       .  S
C318        H330   1.082       .  S
C319        C320   1.373   1_655  A
C319        H331   1.082       .  S
C320        H332   1.082       .  S
C321        C871   1.503       .  S
C322        C844   1.484       .  S
C323        C991   1.501       .  S
C324        C892   1.477       .  S
O335       Ni341   1.929       .  S
O335        C356   1.270       .  A
O336       Ni359   1.900       .  S
O336        C345   1.267       .  A
O337       Ni341   1.902       .  S
O337       Ni359   1.898       .  S
O337       Ni353   1.891       .  S
O337        H360   0.968       .  S
C338        C895   1.454       .  S
C338        O355   1.265       .  A
C338        O347   1.273       .  A
O339       Ni358   1.921       .  S
O339        C345   1.270       .  A
O340       Ni358   1.900       .  S
O340        C342   1.267       .  A
Ni341       O344   1.917       .  S
Ni341       O346   1.904       .  S
C342       C1135   1.482       .  S
C342        O352   1.276       .  A
O343       Ni359   1.913       .  S
O343        C349   1.277       .  A
O344        C349   1.278       .  A
C345        C796   1.476       .  S
O346        C348   1.268       .  A
O347       Ni358   1.930       .  S
C348        C775   1.485       .  S
C348        O354   1.272       .  A
C349        C820   1.476       .  S
H350        O351   0.963       .  S
O351       Ni359   1.913       .  S
O351       Ni353   1.914       .  S
O351       Ni358   1.913       .  S
O352       Ni353   1.944       .  S
Ni353       O357   1.901       .  S
Ni353       O355   1.886       .  S
O354       Ni359   1.935       .  S
C356       C1159   1.478       .  S
C356        O357   1.266       .  A
O361       Ni367   1.942       .  S
O361        C382   1.276       .  A
O362       Ni385   1.883       .  S
O362        C371   1.262       .  A
O363       Ni367   1.919       .  S
O363       Ni385   1.898       .  S
O363       Ni379   1.918       .  S
O363        H386   0.966       .  S
C364        C868   1.493       .  S
C364        O381   1.279       .  A
C364        O373   1.278       .  A
O365       Ni384   1.935       .  S
O365        C371   1.273       .  A
O366       Ni384   1.914       .  S
O366        C368   1.269       .  A
Ni367       O370   1.938       .  S
Ni367       O372   1.917       .  S
C368       C1087   1.482       .  S
C368        O378   1.269       .  A
O369       Ni385   1.921       .  S
O369        C375   1.274       .  A
O370        C375   1.279       .  A
C371        C724   1.471       .  S
O372        C374   1.272       .  A
O373       Ni384   1.937       .  S
C374        C703   1.482       .  S
C374        O380   1.271       .  A
C375        C751   1.490       .  S
H376        O377   0.966       .  S
O377       Ni385   1.914       .  S
O377       Ni379   1.897       .  S
O377       Ni384   1.918       .  S
O378       Ni379   1.917       .  S
Ni379       O383   1.878       .  S
Ni379       O381   1.930       .  S
O380       Ni385   1.916       .  S
C382       C1111   1.476       .  S
C382        O383   1.263       .  A
O387       Ni393   1.934       .  S
O387        C408   1.272       .  A
O388       Ni411   1.907       .  S
O388        C397   1.267       .  A
O389       Ni393   1.914       .  S
O389       Ni411   1.909       .  S
O389       Ni405   1.916       .  S
O389        H412   0.966       .  S
C390        C679   1.471       .  S
C390        O407   1.276       .  A
C390        O399   1.277       .  A
O391       Ni410   1.934       .  S
O391        C397   1.273       .  A
O392       Ni410   1.918       .  S
O392        C394   1.271       .  A
Ni393       O396   1.926       .  S
Ni393       O398   1.909       .  S
C394        C652   1.486       .  S
C394        O404   1.271       .  A
O395       Ni411   1.913       .  S
O395        C401   1.275       .  A
O396        C401   1.277       .  A
C397       C1039   1.482       .  S
O398        C400   1.270       .  A
O399       Ni410   1.929       .  S
C400       C1063   1.478       .  S
C400        O406   1.272       .  A
C401        C847   1.479       .  S
H402        O403   0.966       .  S
O403       Ni411   1.906       .  S
O403       Ni405   1.904       .  S
O403       Ni410   1.912       .  S
O404       Ni405   1.926       .  S
Ni405       O409   1.904       .  S
Ni405       O407   1.913       .  S
O406       Ni411   1.922       .  S
C408        C628   1.484       .  S
C408        O409   1.267       .  A
N413        C418   1.357       .  A
N413        C417   1.354       .  A
N413        H445   1.038       .  S
N414        C421   1.351       .  A
N414        C422   1.356       .  A
N415        C420   1.353       .  A
N415        C419   1.357       .  A
N415        H446   1.031       .  S
N416        C423   1.355       .  A
N416        C424   1.353       .  A
C417        C425   1.390       .  A
C417        C433   1.422       .  A
C418        C434   1.417       .  A
C418        C426   1.385       .  A
C419        C427   1.388       .  A
C419        C436   1.425       .  A
C420        C435   1.421       .  A
C420        C428   1.388       .  A
C421        C433   1.422       .  A
C421        C429   1.389       .  A
C422        C436   1.419       .  A
C422        C430   1.385       .  A
C423        C431   1.385       .  A
C423        C434   1.418       .  A
C424        C432   1.389       .  A
C424        C435   1.421       .  A
C425        C426   1.375       .  A
C425        H437   1.082       .  S
C426        H438   1.082       .  S
C427        C428   1.372       .  A
C427        H439   1.081       .  S
C428        H440   1.082       .  S
C429        C430   1.372       .  A
C429        H441   1.082       .  S
C430        H442   1.082       .  S
C431        C432   1.370       .  A
C431        H443   1.082       .  S
C432        H444   1.081       .  S
C433        C823   1.489       .  S
C434        C967   1.499       .  S
C435        C676   1.485       .  S
C436        C748   1.500       .  S
N447        C452   1.354       .  A
N447        C451   1.351       .  A
N447        H479   1.039       .  S
N448        C455   1.350       .  A
N448        C456   1.352       .  A
N449        C454   1.352       .  A
N449        C453   1.356       .  A
N449        H480   1.038       .  S
N450        C457   1.353       .  A
N450        C458   1.351       .  A
C451        C459   1.387       .  A
C451        C467   1.413       .  A
C452        C468   1.414       .  A
C452        C460   1.386       .  A
C453        C461   1.388       .  A
C453        C470   1.419       .  A
C454        C469   1.416       .  A
C454        C462   1.387       .  A
C455        C467   1.411       .  A
C455        C463   1.386       .  A
C456        C470   1.415       .  A
C456        C464   1.387       .  A
C457        C465   1.387       .  A
C457        C468   1.417       .  A
C458        C466   1.386       .  A
C458        C469   1.413       .  A
C459        C460   1.374       .  A
C459        H471   1.083       .  S
C460        H472   1.082       .  S
C461        C462   1.375       .  A
C461        H473   1.081       .  S
C462        H474   1.082       .  S
C463        C464   1.371       .  A
C463        H475   1.082       .  S
C464        H476   1.081       .  S
C465        C466   1.373       .  A
C465        H477   1.082       .  S
C466        H478   1.082       .  S
C467       C1252   1.478       .  S
C468       C1615   1.495       .  S
C469       C1495   1.481       .  S
C470       C1375   1.491       .  S
N481        C486   1.352       .  A
N481        C485   1.354       .  A
N481        H513   1.040       .  S
N482        C489   1.352       .  A
N482        C490   1.351       .  A
N483        C488   1.354       .  A
N483        C487   1.352       .  A
N483        H514   1.039       .  S
N484        C491   1.352       .  A
N484        C492   1.352       .  A
C485        C493   1.384       .  A
C485        C501   1.412       .  A
C486        C502   1.417       .  A
C486        C494   1.389       .  A
C487        C495   1.387       .  A
C487        C504   1.415       .  A
C488        C503   1.413       .  A
C488        C496   1.386       .  A
C489        C501   1.411       .  A
C489        C497   1.385       .  A
C490        C504   1.414       .  A
C490        C498   1.387       .  A
C491        C499   1.387       .  A
C491        C502   1.416       .  A
C492        C500   1.385       .  A
C492        C503   1.414       .  A
C493        C494   1.376       .  A
C493        H505   1.082       .  S
C494        H506   1.082       .  S
C495        C496   1.376       .  A
C495        H507   1.082       .  S
C496        H508   1.082       .  S
C497        C498   1.373       .  A
C497        H509   1.082       .  S
C498        H510   1.082       .  S
C499        C500   1.375       .  A
C499        H511   1.082       .  S
C500        H512   1.082       .  S
C501        C655   1.488       .  S
C502       C1327   1.490       .  S
C503       C1471   1.488       .  S
C504        C700   1.485       .  S
N515        C520   1.352       .  A
N515        C519   1.351       .  A
N515        H547   1.038       .  S
N516        C523   1.349       .  A
N516        C524   1.349       .  A
N517        C522   1.349       .  A
N517        C521   1.349       .  A
N517        H548   1.039       .  S
N518        C525   1.351       .  A
N518        C526   1.350       .  A
C519        C527   1.387       .  A
C519        C535   1.412       .  A
C520        C536   1.413       .  A
C520        C528   1.387       .  A
C521        C529   1.385       .  A
C521        C538   1.406       .  A
C522        C537   1.412       .  A
C522        C530   1.389       .  A
C523        C535   1.407       .  A
C523        C531   1.385       .  A
C524        C538   1.410       .  A
C524        C532   1.387       .  A
C525        C533   1.385       .  A
C525        C536   1.410       .  A
C526        C534   1.387       .  A
C526        C537   1.413       .  A
C527        C528   1.376       .  A
C527        H539   1.082       .  S
C528        H540   1.082       .  S
C529        C530   1.375       .  A
C529        H541   1.083       .  S
C530        H542   1.082       .  S
C531        C532   1.371       .  A
C531        H543   1.082       .  S
C532        H544   1.082       .  S
C533        C534   1.374       .  A
C533        H545   1.082       .  S
C534        H546   1.082       .  S
C535       C1348   1.474       .  S
C536        C631   1.481       .  S
C537        C943   1.481       .  S
C538       C1207   1.476       .  S
N549        C554   1.351       .  A
N549        C553   1.348       .  A
N549        H581   1.034       .  S
N550        C557   1.349       .  A
N550        C558   1.350       .  A
N551        C556   1.348       .  A
N551        C555   1.350       .  A
N551        H582   1.037       .  S
N552        C559   1.348       .  A
N552        C560   1.348       .  A
C553        C561   1.388       .  A
C553        C569   1.411       .  A
C554        C570   1.410       .  A
C554        C562   1.386       .  A
C555        C563   1.387       .  A
C555        C572   1.408       .  A
C556        C571   1.407       .  A
C556        C564   1.387       .  A
C557        C569   1.411       .  A
C557        C565   1.387       .  A
C558        C572   1.409       .  A
C558        C566   1.385       .  A
C559        C567   1.388       .  A
C559        C570   1.411       .  A
C560        C568   1.386       .  A
C560        C571   1.406       .  A
C561        C562   1.375       .  A
C561        H573   1.082       .  S
C562        H574   1.082       .  S
C563        C564   1.374       .  A
C563        H575   1.082       .  S
C564        H576   1.083       .  S
C565        C566   1.371       .  A
C565        H577   1.082       .  S
C566        H578   1.082       .  S
C567        C568   1.367       .  A
C567        H579   1.082       .  S
C568        H580   1.082       .  S
C569        C799   1.471       .  S
C570       C1564   1.473       .  S
C571       C1228   1.468       .  S
C572        C919   1.475       .  S
N583        C588   1.351       .  A
N583        C587   1.354       .  A
N583        H615   1.039       .  S
N584        C591   1.352       .  A
N584        C592   1.349       .  A
N585        C590   1.352       .  A
N585        C589   1.349       .  A
N585        H616   1.035       .  S
N586        C593   1.349       .  A
N586        C594   1.353       .  A
C587        C595   1.385       .  A
C587        C603   1.412       .  A
C588        C604   1.414       .  A
C588        C596   1.388       .  A
C589        C597   1.389       .  A
C589        C606   1.413       .  A
C590        C605   1.411       .  A
C590        C598   1.386       .  A
C591        C603   1.412       .  A
C591        C599   1.385       .  A
C592        C606   1.412       .  A
C592        C600   1.387       .  A
C593        C601   1.389       .  A
C593        C604   1.416       .  A
C594        C602   1.384       .  A
C594        C605   1.410       .  A
C595        C596   1.374       .  A
C595        H607   1.082       .  S
C596        H608   1.082       .  S
C597        C598   1.374       .  A
C597        H609   1.082       .  S
C598        H610   1.083       .  S
C599        C600   1.372       .  A
C599        H611   1.082       .  S
C600        H612   1.082       .  S
C601        C602   1.370       .  A
C601        H613   1.082       .  S
C602        H614   1.082       .  S
C603        C772   1.490       .  S
C604       C1588   1.484       .  S
C605       C1447   1.482       .  S
C606        C727   1.469       .  S
C617        C618   1.399       .  A
C617        C622   1.403       .  A
C617        H633   1.084       .  S
C618        C619   1.404       .  A
C618        H634   1.084       .  S
C619        C629   1.403       .  A
C619        C620   1.411       .  A
C620        C626   1.411       .  A
C620        C621   1.412       .  A
C621        C623   1.412       .  A
C621        C622   1.412       .  A
C622        C630   1.402       .  A
C623        C632   1.402       .  A
C623        C624   1.403       .  A
C624        C625   1.399       .  A
C624        H635   1.084       .  S
C625        C626   1.404       .  A
C625        H636   1.084       .  S
C626        C627   1.403       .  A
C627        C628   1.409       .  A
C627        H637   1.084       .  S
C628        C629   1.408       .  A
C629        H638   1.084       .  S
C630        C631   1.403       .  A
C630        H639   1.084       .  S
C631        C632   1.403       .  A
C632        H640   1.084       .  S
C641        C642   1.401       .  A
C641        C646   1.404       .  A
C641        H657   1.083       .  S
C642        C643   1.404       .  A
C642        H658   1.083       .  S
C643        C653   1.407       .  A
C643        C644   1.412       .  A
C644        C650   1.411       .  A
C644        C645   1.414       .  A
C645        C647   1.412       .  A
C645        C646   1.412       .  A
C646        C654   1.406       .  A
C647        C656   1.404       .  A
C647        C648   1.403       .  A
C648        C649   1.400       .  A
C648        H659   1.084       .  S
C649        C650   1.404       .  A
C649        H660   1.084       .  S
C650        C651   1.404       .  A
C651        C652   1.409       .  A
C651        H661   1.084       .  S
C652        C653   1.408       .  A
C653        H662   1.084       .  S
C654        C655   1.405       .  A
C654        H663   1.084       .  S
C655        C656   1.404       .  A
C656        H664   1.084       .  S
C665        C666   1.401       .  A
C665        C670   1.404       .  A
C665        H681   1.084       .  S
C666        C667   1.404       .  A
C666        H682   1.084       .  S
C667        C677   1.405       .  A
C667        C668   1.413       .  A
C668        C674   1.412       .  A
C668        C669   1.411       .  A
C669        C671   1.413       .  A
C669        C670   1.412       .  A
C670        C678   1.404       .  A
C671        C680   1.401       .  A
C671        C672   1.402       .  A
C672        C673   1.397       .  A
C672        H683   1.084       .  S
C673        C674   1.402       .  A
C673        H684   1.084       .  S
C674        C675   1.399       .  A
C675        C676   1.402       .  A
C675        H685   1.085       .  S
C676        C677   1.406       .  A
C677        H686   1.084       .  S
C678        C679   1.406       .  A
C678        H687   1.084       .  S
C679        C680   1.403       .  A
C680        H688   1.085       .  S
C689        C690   1.400       .  A
C689        C694   1.404       .  A
C689        H705   1.083       .  S
C690        C691   1.404       .  A
C690        H706   1.084       .  S
C691        C701   1.403       .  A
C691        C692   1.412       .  A
C692        C698   1.412       .  A
C692        C693   1.411       .  A
C693        C695   1.410       .  A
C693        C694   1.412       .  A
C694        C702   1.406       .  A
C695        C704   1.399       .  A
C695        C696   1.403       .  A
C696        C697   1.397       .  A
C696        H707   1.084       .  S
C697        C698   1.402       .  A
C697        H708   1.084       .  S
C698        C699   1.399       .  A
C699        C700   1.403       .  A
C699        H709   1.085       .  S
C700        C701   1.405       .  A
C701        H710   1.084       .  S
C702        C703   1.408       .  A
C702        H711   1.084       .  S
C703        C704   1.408       .  A
C704        H712   1.084       .  S
C713        C714   1.397       .  A
C713        C718   1.402       .  A
C713        H729   1.084       .  S
C714        C715   1.403       .  A
C714        H730   1.084       .  S
C715        C725   1.398       .  A
C715        C716   1.411       .  A
C716        C722   1.411       .  A
C716        C717   1.406       .  A
C717        C719   1.412       .  A
C717        C718   1.413       .  A
C718        C726   1.398       .  A
C719        C728   1.396       .  A
C719        C720   1.402       .  A
C720        C721   1.396       .  A
C720        H731   1.084       .  S
C721        C722   1.403       .  A
C721        H732   1.084       .  S
C722        C723   1.397       .  A
C723        C724   1.406       .  A
C723        H733   1.084       .  S
C724        C725   1.405       .  A
C725        H734   1.084       .  S
C726        C727   1.400       .  A
C726        H735   1.084       .  S
C727        C728   1.399       .  A
C728        H736   1.085       .  S
C737        C738   1.404       .  A
C737        C742   1.406       .  A
C737        H753   1.084       .  S
C738        C739   1.405       .  A
C738        H754   1.083       .  S
C739        C749   1.411       .  A
C739        C740   1.413       .  A
C740        C746   1.411       .  A
C740        C741   1.417       .  A
C741        C743   1.412       .  A
C741        C742   1.411       .  A
C742        C750   1.410       .  A
C743        C752   1.406       .  A
C743        C744   1.403       .  A
C744        C745   1.399       .  A
C744        H755   1.083       .  S
C745        C746   1.403       .  A
C745        H756   1.084       .  S
C746        C747   1.404       .  A
C747        C748   1.406       .  A
C747        H757   1.084       .  S
C748        C749   1.409       .  A
C749        H758   1.084       .  S
C750        C751   1.411       .  A
C750        H759   1.084       .  S
C751        C752   1.407       .  A
C752        H760   1.084       .  S
C761        C762   1.397       .  A
C761        C766   1.403       .  A
C761        H777   1.084       .  S
C762        C763   1.402       .  A
C762        H778   1.084       .  S
C763        C773   1.401       .  A
C763        C764   1.413       .  A
C764        C770   1.412       .  A
C764        C765   1.414       .  A
C765        C767   1.413       .  A
C765        C766   1.410       .  A
C766        C774   1.400       .  A
C767        C776   1.410       .  A
C767        C768   1.405       .  A
C768        C769   1.403       .  A
C768        H779   1.084       .  S
C769        C770   1.405       .  A
C769        H780   1.084       .  S
C770        C771   1.407       .  A
C771        C772   1.407       .  A
C771        H781   1.084       .  S
C772        C773   1.403       .  A
C773        H782   1.084       .  S
C774        C775   1.407       .  A
C774        H783   1.084       .  S
C775        C776   1.409       .  A
C776        H784   1.084       .  S
C785        C786   1.397       .  A
C785        C790   1.402       .  A
C785        H801   1.084       .  S
C786        C787   1.403       .  A
C786        H802   1.084       .  S
C787        C797   1.401       .  A
C787        C788   1.413       .  A
C788        C794   1.409       .  A
C788        C789   1.408       .  A
C789        C791   1.414       .  A
C789        C790   1.411       .  A
C790        C798   1.397       .  A
C791        C800   1.400       .  A
C791        C792   1.402       .  A
C792        C793   1.397       .  A
C792        H803   1.084       .  S
C793        C794   1.404       .  A
C793        H804   1.084       .  S
C794        C795   1.398       .  A
C795        C796   1.408       .  A
C795        H805   1.084       .  S
C796        C797   1.405       .  A
C797        H806   1.084       .  S
C798        C799   1.401       .  A
C798        H807   1.085       .  S
C799        C800   1.400       .  A
C800        H808   1.084       .  S
C809        C810   1.398       .  A
C809        C814   1.403       .  A
C809        H825   1.084       .  S
C810        C811   1.403       .  A
C810        H826   1.084       .  S
C811        C821   1.400       .  A
C811        C812   1.410       .  A
C812        C818   1.411       .  A
C812        C813   1.409       .  A
C813        C815   1.411       .  A
C813        C814   1.412       .  A
C814        C822   1.401       .  A
C815        C824   1.399       .  A
C815        C816   1.403       .  A
C816        C817   1.397       .  A
C816        H827   1.084       .  S
C817        C818   1.402       .  A
C817        H828   1.084       .  S
C818        C819   1.399       .  A
C819        C820   1.406       .  A
C819        H829   1.084       .  S
C820        C821   1.408       .  A
C821        H830   1.084       .  S
C822        C823   1.406       .  A
C822        H831   1.084       .  S
C823        C824   1.405       .  A
C824        H832   1.084       .  S
C833        C834   1.399       .  A
C833        C838   1.403       .  A
C833        H849   1.084       .  S
C834        C835   1.403       .  A
C834        H850   1.084       .  S
C835        C845   1.401       .  A
C835        C836   1.412       .  A
C836        C842   1.412       .  A
C836        C837   1.411       .  A
C837        C839   1.411       .  A
C837        C838   1.412       .  A
C838        C846   1.403       .  A
C839        C848   1.402       .  A
C839        C840   1.404       .  A
C840        C841   1.399       .  A
C840        H851   1.084       .  S
C841        C842   1.403       .  A
C841        H852   1.084       .  S
C842        C843   1.402       .  A
C843        C844   1.404       .  A
C843        H853   1.084       .  S
C844        C845   1.404       .  A
C845        H854   1.084       .  S
C846        C847   1.407       .  A
C846        H855   1.084       .  S
C847        C848   1.407       .  A
C848        H856   1.084       .  S
C857        C858   1.403       .  A
C857        C862   1.405       .  A
C857        H873   1.083       .  S
C858        C859   1.405       .  A
C858        H874   1.084       .  S
C859        C869   1.411       .  A
C859        C860   1.412       .  A
C860        C866   1.412       .  A
C860        C861   1.419       .  A
C861        C863   1.412       .  A
C861        C862   1.412       .  A
C862        C870   1.411       .  A
C863        C872   1.409       .  A
C863        C864   1.404       .  A
C864        C865   1.402       .  A
C864        H875   1.083       .  S
C865        C866   1.405       .  A
C865        H876   1.083       .  S
C866        C867   1.410       .  A
C867        C868   1.410       .  A
C867        H877   1.084       .  S
C868        C869   1.410       .  A
C869        H878   1.084       .  S
C870        C871   1.409       .  A
C870        H879   1.084       .  S
C871        C872   1.408       .  A
C872        H880   1.084       .  S
C881        C882   1.398       .  A
C881        C886   1.403       .  A
C881        H897   1.084       .  S
C882        C883   1.403       .  A
C882        H898   1.084       .  S
C883        C893   1.400       .  A
C883        C884   1.412       .  A
C884        C890   1.412       .  A
C884        C885   1.406       .  A
C885        C887   1.413       .  A
C885        C886   1.412       .  A
C886        C894   1.400       .  A
C887        C896   1.396       .  A
C887        C888   1.401       .  A
C888        C889   1.395       .  A
C888        H899   1.084       .  S
C889        C890   1.402       .  A
C889        H900   1.084       .  S
C890        C891   1.395       .  A
C891        C892   1.401       .  A
C891        H901   1.085       .  S
C892        C893   1.403       .  A
C893        H902   1.084       .  S
C894        C895   1.402       .  A
C894        H903   1.085       .  S
C895        C896   1.398       .  A
C896        H904   1.085       .  S
C905        C906   1.398       .  A
C905        C910   1.403       .  A
C905        H921   1.084       .  S
C906        C907   1.403       .  A
C906        H922   1.084       .  S
C907        C917   1.402       .  A
C907        C908   1.412       .  A
C908        C914   1.410       .  A
C908        C909   1.409       .  A
C909        C911   1.414       .  A
C909        C910   1.411       .  A
C910        C918   1.399       .  A
C911        C920   1.401       .  A
C911        C912   1.402       .  A
C912        C913   1.398       .  A
C912        H923   1.084       .  S
C913        C914   1.404       .  A
C913        H924   1.084       .  S
C914        C915   1.399       .  A
C915        C916   1.407       .  A
C915        H925   1.084       .  S
C916        C917   1.406       .  A
C917        H926   1.084       .  S
C918        C919   1.402       .  A
C918        H927   1.085       .  S
C919        C920   1.400       .  A
C920        H928   1.084       .  S
C929        C930   1.398       .  A
C929        C934   1.403       .  A
C929        H945   1.084       .  S
C930        C931   1.404       .  A
C930        H946   1.084       .  S
C931        C941   1.400       .  A
C931        C932   1.411       .  A
C932        C938   1.411       .  A
C932        C933   1.406       .  A
C933        C935   1.411       .  A
C933        C934   1.412       .  A
C934        C942   1.401       .  A
C935        C944   1.394       .  A
C935        C936   1.402       .  A
C936        C937   1.394       .  A
C936        H947   1.084       .  S
C937        C938   1.401       .  A
C937        H948   1.084       .  S
C938        C939   1.395       .  A
C939        C940   1.404       .  A
C939        H949   1.084       .  S
C940        C941   1.408       .  A
C941        H950   1.084       .  S
C942        C943   1.404       .  A
C942        H951   1.084       .  S
C943        C944   1.403       .  A
C944        H952   1.085       .  S
C953        C954   1.398       .  A
C953        C958   1.402       .  A
C953        H969   1.084       .  S
C954        C955   1.403       .  A
C954        H970   1.084       .  S
C955        C965   1.402       .  A
C955        C956   1.410       .  A
C956        C962   1.413       .  A
C956        C957   1.417       .  A
C957        C959   1.412       .  A
C957        C958   1.412       .  A
C958        C966   1.403       .  A
C959        C968   1.411       .  A
C959        C960   1.406       .  A
C960        C961   1.405       .  A
C960        H971   1.083       .  S
C961        C962   1.406       .  A
C961        H972   1.083       .  S
C962        C963   1.414       .  A
C963        C964   1.412       .  A
C963        H973   1.084       .  S
C964        C965   1.409       .  A
C965        H974   1.084       .  S
C966        C967   1.405       .  A
C966        H975   1.084       .  S
C967        C968   1.410       .  A
C968        H976   1.084       .  S
C977        C978   1.401       .  A
C977        C982   1.404       .  A
C977        H993   1.083       .  S
C978        C979   1.404       .  A
C978        H994   1.084       .  S
C979        C989   1.408       .  A
C979        C980   1.412       .  A
C980        C986   1.411       .  A
C980        C981   1.417       .  A
C981        C983   1.412       .  A
C981        C982   1.412       .  A
C982        C990   1.407       .  A
C983        C992   1.409       .  A
C983        C984   1.404       .  A
C984        C985   1.402       .  A
C984        H995   1.083       .  S
C985        C986   1.405       .  A
C985        H996   1.084       .  S
C986        C987   1.407       .  A
C987        C988   1.410       .  A
C987        H997   1.084       .  S
C988        C989   1.408       .  A
C989        H998   1.084       .  S
C990        C991   1.408       .  A
C990        H999   1.084       .  S
C991        C992   1.408       .  A
C992       H1000   1.084       .  S
C1001      C1002   1.394       .  A
C1001      C1006   1.402       .  A
C1001      H1017   1.084       .  S
C1002      C1003   1.402       .  A
C1002      H1018   1.084       .  S
C1003      C1013   1.392       .  A
C1003      C1004   1.409       .  A
C1004      C1010   1.413       .  A
C1004      C1005   1.406       .  A
C1005      C1007   1.410       .  A
C1005      C1006   1.412       .  A
C1006      C1014   1.396       .  A
C1007      C1016   1.400       .  A
C1007      C1008   1.404       .  A
C1008      C1009   1.399       .  A
C1008      H1019   1.084       .  S
C1009      C1010   1.403       .  A
C1009      H1020   1.084       .  S
C1010      C1011   1.401       .  A
C1011      C1012   1.405       .  A
C1011      H1021   1.084       .  S
C1012      C1013   1.405       .  A
C1013      H1022   1.085       .  S
C1014      C1015   1.404       .  A
C1014      H1023   1.084       .  S
C1015      C1016   1.409       .  A
C1016      H1024   1.084       .  S
C1025      C1026   1.400       .  A
C1025      C1030   1.404       .  A
C1025      H1041   1.084       .  S
C1026      C1027   1.404       .  A
C1026      H1042   1.084       .  S
C1027      C1037   1.403       .  A
C1027      C1028   1.411       .  A
C1028      C1034   1.412       .  A
C1028      C1029   1.413       .  A
C1029      C1031   1.411       .  A
C1029      C1030   1.412       .  A
C1030      C1038   1.404       .  A
C1031      C1040   1.404       .  A
C1031      C1032   1.404       .  A
C1032      C1033   1.399       .  A
C1032      H1043   1.084       .  S
C1033      C1034   1.403       .  A
C1033      H1044   1.083       .  S
C1034      C1035   1.404       .  A
C1035      C1036   1.406       .  A
C1035      H1045   1.084       .  S
C1036      C1037   1.407       .  A
C1037      H1046   1.084       .  S
C1038      C1039   1.408       .  A
C1038      H1047   1.084       .  S
C1039      C1040   1.407       .  A
C1040      H1048   1.084       .  S
C1049      C1050   1.398       .  A
C1049      C1054   1.404       .  A
C1049      H1065   1.084       .  S
C1050      C1051   1.403       .  A
C1050      H1066   1.084       .  S
C1051      C1061   1.400       .  A
C1051      C1052   1.412       .  A
C1052      C1058   1.412       .  A
C1052      C1053   1.411       .  A
C1053      C1055   1.412       .  A
C1053      C1054   1.411       .  A
C1054      C1062   1.402       .  A
C1055      C1064   1.403       .  A
C1055      C1056   1.403       .  A
C1056      C1057   1.399       .  A
C1056      H1067   1.084       .  S
C1057      C1058   1.403       .  A
C1057      H1068   1.084       .  S
C1058      C1059   1.403       .  A
C1059      C1060   1.404       .  A
C1059      H1069   1.084       .  S
C1060      C1061   1.403       .  A
C1061      H1070   1.085       .  S
C1062      C1063   1.408       .  A
C1062      H1071   1.085       .  S
C1063      C1064   1.406       .  A
C1064      H1072   1.084       .  S
C1073      C1074   1.398       .  A
C1073      C1078   1.403       .  A
C1073      H1089   1.084       .  S
C1074      C1075   1.403       .  A
C1074      H1090   1.084       .  S
C1075      C1085   1.402       .  A
C1075      C1076   1.412       .  A
C1076      C1082   1.412       .  A
C1076      C1077   1.413       .  A
C1077      C1079   1.412       .  A
C1077      C1078   1.410       .  A
C1078      C1086   1.400       .  A
C1079      C1088   1.406       .  A
C1079      C1080   1.404       .  A
C1080      C1081   1.401       .  A
C1080      H1091   1.084       .  S
C1081      C1082   1.404       .  A
C1081      H1092   1.083       .  S
C1082      C1083   1.406       .  A
C1083      C1084   1.407       .  A
C1083      H1093   1.084       .  S
C1084      C1085   1.405       .  A
C1085      H1094   1.084       .  S
C1086      C1087   1.408       .  A
C1086      H1095   1.084       .  S
C1087      C1088   1.408       .  A
C1088      H1096   1.084       .  S
C1097      C1098   1.395       .  A
C1097      C1102   1.403       .  A
C1097      H1113   1.084       .  S
C1098      C1099   1.401       .  A
C1098      H1114   1.084       .  S
C1099      C1109   1.397       .  A
C1099      C1100   1.413       .  A
C1100      C1106   1.411       .  A
C1100      C1101   1.407       .  A
C1101      C1103   1.413       .  A
C1101      C1102   1.409       .  A
C1102      C1110   1.394       .  A
C1103      C1112   1.403       .  A
C1103      C1104   1.403       .  A
C1104      C1105   1.399       .  A
C1104      H1115   1.084       .  S
C1105      C1106   1.403       .  A
C1105      H1116   1.084       .  S
C1106      C1107   1.399       .  A
C1107      C1108   1.403       .  A
C1107      H1117   1.084       .  S
C1108      C1109   1.400       .  A
C1109      H1118   1.085       .  S
C1110      C1111   1.408       .  A
C1110      H1119   1.084       .  S
C1111      C1112   1.406       .  A
C1112      H1120   1.084       .  S
C1121      C1122   1.399       .  A
C1121      C1126   1.404       .  A
C1121      H1137   1.084       .  S
C1122      C1123   1.403       .  A
C1122      H1138   1.084       .  S
C1123      C1133   1.401       .  A
C1123      C1124   1.412       .  A
C1124      C1130   1.413       .  A
C1124      C1125   1.411       .  A
C1125      C1127   1.410       .  A
C1125      C1126   1.412       .  A
C1126      C1134   1.403       .  A
C1127      C1136   1.402       .  A
C1127      C1128   1.404       .  A
C1128      C1129   1.398       .  A
C1128      H1139   1.084       .  S
C1129      C1130   1.402       .  A
C1129      H1140   1.084       .  S
C1130      C1131   1.402       .  A
C1131      C1132   1.402       .  A
C1131      H1141   1.084       .  S
C1132      C1133   1.403       .  A
C1133      H1142   1.084       .  S
C1134      C1135   1.407       .  A
C1134      H1143   1.084       .  S
C1135      C1136   1.409       .  A
C1136      H1144   1.084       .  S
C1145      C1146   1.397       .  A
C1145      C1150   1.403       .  A
C1145      H1161   1.084       .  S
C1146      C1147   1.403       .  A
C1146      H1162   1.084       .  S
C1147      C1157   1.398       .  A
C1147      C1148   1.411       .  A
C1148      C1154   1.414       .  A
C1148      C1149   1.409       .  A
C1149      C1151   1.410       .  A
C1149      C1150   1.412       .  A
C1150      C1158   1.401       .  A
C1151      C1160   1.400       .  A
C1151      C1152   1.404       .  A
C1152      C1153   1.398       .  A
C1152      H1163   1.084       .  S
C1153      C1154   1.402       .  A
C1153      H1164   1.084       .  S
C1154      C1155   1.402       .  A
C1155      C1156   1.401       .  A
C1155      H1165   1.084       .  S
C1156      C1157   1.402       .  A
C1157      H1166   1.085       .  S
C1158      C1159   1.406       .  A
C1158      H1167   1.084       .  S
C1159      C1160   1.408       .  A
C1160      H1168   1.084       .  S
C1169      C1170   1.399       .  A
C1169      C1174   1.404       .  A
C1169      H1185   1.084       .  S
C1170      C1171   1.403       .  A
C1170      H1186   1.083       .  S
C1171      C1181   1.406       .  A
C1171      C1172   1.414       .  A
C1172      C1178   1.409       .  A
C1172      C1173   1.412       .  A
C1173      C1175   1.415       .  A
C1173      C1174   1.410       .  A
C1174      C1182   1.401       .  A
C1175      C1184   1.404       .  A
C1175      C1176   1.402       .  A
C1176      C1177   1.398       .  A
C1176      H1187   1.084       .  S
C1177      C1178   1.404       .  A
C1177      H1188   1.084       .  S
C1178      C1179   1.399       .  A
C1179      C1180   1.410       .  A
C1179      H1189   1.084       .  S
C1180      C1181   1.406       .  A
C1181      H1190   1.084       .  S
C1182      C1183   1.404       .  A
C1182      H1191   1.085       .  S
C1183      C1184   1.402       .  A
C1184      H1192   1.084       .  S
C1193      C1194   1.398       .  A
C1193      C1198   1.403       .  A
C1193      H1209   1.084       .  S
C1194      C1195   1.403       .  A
C1194      H1210   1.084       .  S
C1195      C1205   1.402       .  A
C1195      C1196   1.412       .  A
C1196      C1202   1.410       .  A
C1196      C1197   1.408       .  A
C1197      C1199   1.413       .  A
C1197      C1198   1.411       .  A
C1198      C1206   1.399       .  A
C1199      C1208   1.398       .  A
C1199      C1200   1.401       .  A
C1200      C1201   1.396       .  A
C1200      H1211   1.084       .  S
C1201      C1202   1.403       .  A
C1201      H1212   1.084       .  S
C1202      C1203   1.397       .  A
C1203      C1204   1.405       .  A
C1203      H1213   1.084       .  S
C1204      C1205   1.406       .  A
C1205      H1214   1.084       .  S
C1206      C1207   1.403       .  A
C1206      H1215   1.085       .  S
C1207      C1208   1.401       .  A
C1208      H1216   1.084       .  S
C1217      C1218   1.398       .  A
C1217      C1222   1.403       .  A
C1217      H1233   1.084       .  S
C1218      C1219   1.403       .  A
C1218      H1234   1.084       .  S
C1219      C1229   1.397       .  A
C1219      C1220   1.411       .  A
C1220      C1226   1.414       .  A
C1220      C1221   1.404       .  A
C1221      C1223   1.410       .  A
C1221      C1222   1.413       .  A
C1222      C1230   1.400       .  A
C1223      C1232   1.392       .  A
C1223      C1224   1.402       .  A
C1224      C1225   1.394       .  A
C1224      H1235   1.084       .  S
C1225      C1226   1.400       .  A
C1225      H1236   1.084       .  S
C1226      C1227   1.395       .  A
C1227      C1228   1.398       .  A
C1227      H1237   1.085       .  S
C1228      C1229   1.402       .  A
C1229      H1238   1.085       .  S
C1230      C1231   1.404       .  A
C1230      H1239   1.084       .  S
C1231      C1232   1.403       .  A
C1232      H1240   1.085       .  S
C1241      C1242   1.394       .  A
C1241      C1246   1.402       .  A
C1241      H1257   1.084       .  S
C1242      C1243   1.401       .  A
C1242      H1258   1.084       .  S
C1243      C1253   1.396       .  A
C1243      C1244   1.413       .  A
C1244      C1250   1.412       .  A
C1244      C1245   1.408       .  A
C1245      C1247   1.412       .  A
C1245      C1246   1.409       .  A
C1246      C1254   1.393       .  A
C1247      C1256   1.404       .  A
C1247      C1248   1.404       .  A
C1248      C1249   1.400       .  A
C1248      H1259   1.084       .  S
C1249      C1250   1.404       .  A
C1249      H1260   1.084       .  S
C1250      C1251   1.402       .  A
C1251      C1252   1.404       .  A
C1251      H1261   1.084       .  S
C1252      C1253   1.400       .  A
C1253      H1262   1.085       .  S
C1254      C1255   1.406       .  A
C1254      H1263   1.084       .  S
C1255      C1256   1.408       .  A
C1256      H1264   1.084       .  S
C1265      C1266   1.394       .  A
C1265      C1270   1.401       .  A
C1265      H1281   1.084       .  S
C1266      C1267   1.401       .  A
C1266      H1282   1.084       .  S
C1267      C1277   1.392       .  A
C1267      C1268   1.411       .  A
C1268      C1274   1.414       .  A
C1268      C1269   1.405       .  A
C1269      C1271   1.410       .  A
C1269      C1270   1.413       .  A
C1270      C1278   1.395       .  A
C1271      C1280   1.397       .  A
C1271      C1272   1.404       .  A
C1272      C1273   1.398       .  A
C1272      H1283   1.084       .  S
C1273      C1274   1.403       .  A
C1273      H1284   1.084       .  S
C1274      C1275   1.400       .  A
C1275      C1276   1.402       .  A
C1275      H1285   1.084       .  S
C1276      C1277   1.399       .  A
C1277      H1286   1.085       .  S
C1278      C1279   1.399       .  A
C1278      H1287   1.085       .  S
C1279      C1280   1.407       .  A
C1280      H1288   1.085       .  S
C1289      C1290   1.401       .  A
C1289      C1294   1.404       .  A
C1289      H1305   1.083       .  S
C1290      C1291   1.404       .  A
C1290      H1306   1.083       .  S
C1291      C1301   1.405       .  A
C1291      C1292   1.412       .  A
C1292      C1298   1.413       .  A
C1292      C1293   1.412       .  A
C1293      C1295   1.409       .  A
C1293      C1294   1.413       .  A
C1294      C1302   1.408       .  A
C1295      C1304   1.399       .  A
C1295      C1296   1.403       .  A
C1296      C1297   1.397       .  A
C1296      H1307   1.084       .  S
C1297      C1298   1.402       .  A
C1297      H1308   1.084       .  S
C1298      C1299   1.401       .  A
C1299      C1300   1.403       .  A
C1299      H1309   1.085       .  S
C1300      C1301   1.406       .  A
C1301      H1310   1.084       .  S
C1302      C1303   1.409       .  A
C1302      H1311   1.084       .  S
C1303      C1304   1.410       .  A
C1304      H1312   1.084       .  S
C1313      C1314   1.400       .  A
C1313      C1318   1.403       .  A
C1313      H1329   1.084       .  S
C1314      C1315   1.405       .  A
C1314      H1330   1.083       .  S
C1315      C1325   1.404       .  A
C1315      C1316   1.410       .  A
C1316      C1322   1.412       .  A
C1316      C1317   1.413       .  A
C1317      C1319   1.411       .  A
C1317      C1318   1.413       .  A
C1318      C1326   1.404       .  A
C1319      C1328   1.401       .  A
C1319      C1320   1.403       .  A
C1320      C1321   1.399       .  A
C1320      H1331   1.084       .  S
C1321      C1322   1.403       .  A
C1321      H1332   1.084       .  S
C1322      C1323   1.404       .  A
C1323      C1324   1.408       .  A
C1323      H1333   1.084       .  S
C1324      C1325   1.410       .  A
C1325      H1334   1.084       .  S
C1326      C1327   1.406       .  A
C1326      H1335   1.084       .  S
C1327      C1328   1.406       .  A
C1328      H1336   1.085       .  S
C1337      C1338   1.398       .  A
C1337      C1342   1.403       .  A
C1337      H1353   1.084       .  S
C1338      C1339   1.402       .  A
C1338      H1354   1.084       .  S
C1339      C1349   1.400       .  A
C1339      C1340   1.413       .  A
C1340      C1346   1.412       .  A
C1340      C1341   1.409       .  A
C1341      C1343   1.411       .  A
C1341      C1342   1.411       .  A
C1342      C1350   1.401       .  A
C1343      C1352   1.400       .  A
C1343      C1344   1.403       .  A
C1344      C1345   1.398       .  A
C1344      H1355   1.084       .  S
C1345      C1346   1.403       .  A
C1345      H1356   1.084       .  S
C1346      C1347   1.400       .  A
C1347      C1348   1.401       .  A
C1347      H1357   1.084       .  S
C1348      C1349   1.401       .  A
C1349      H1358   1.084       .  S
C1350      C1351   1.406       .  A
C1350      H1359   1.084       .  S
C1351      C1352   1.408       .  A
C1352      H1360   1.084       .  S
C1361      C1362   1.401       .  A
C1361      C1366   1.404       .  A
C1361      H1377   1.084       .  S
C1362      C1363   1.404       .  A
C1362      H1378   1.084       .  S
C1363      C1373   1.406       .  A
C1363      C1364   1.413       .  A
C1364      C1370   1.411       .  A
C1364      C1365   1.413       .  A
C1365      C1367   1.413       .  A
C1365      C1366   1.411       .  A
C1366      C1374   1.404       .  A
C1367      C1376   1.403       .  A
C1367      C1368   1.403       .  A
C1368      C1369   1.399       .  A
C1368      H1379   1.083       .  S
C1369      C1370   1.403       .  A
C1369      H1380   1.084       .  S
C1370      C1371   1.402       .  A
C1371      C1372   1.405       .  A
C1371      H1381   1.084       .  S
C1372      C1373   1.407       .  A
C1373      H1382   1.085       .  S
C1374      C1375   1.407       .  A
C1374      H1383   1.084       .  S
C1375      C1376   1.405       .  A
C1376      H1384   1.084       .  S
C1385      C1386   1.397       .  A
C1385      C1390   1.402       .  A
C1385      H1401   1.084       .  S
C1386      C1387   1.403       .  A
C1386      H1402   1.084       .  S
C1387      C1397   1.397       .  A
C1387      C1388   1.410       .  A
C1388      C1394   1.412       .  A
C1388      C1389   1.405       .  A
C1389      C1391   1.412       .  A
C1389      C1390   1.413       .  A
C1390      C1398   1.398       .  A
C1391      C1400   1.395       .  A
C1391      C1392   1.401       .  A
C1392      C1393   1.395       .  A
C1392      H1403   1.084       .  S
C1393      C1394   1.402       .  A
C1393      H1404   1.084       .  S
C1394      C1395   1.397       .  A
C1395      C1396   1.404       .  A
C1395      H1405   1.084       .  S
C1396      C1397   1.407       .  A
C1397      H1406   1.084       .  S
C1398      C1399   1.399       .  A
C1398      H1407   1.084       .  S
C1399      C1400   1.399       .  A
C1400      H1408   1.085       .  S
C1409      C1410   1.400       .  A
C1409      C1414   1.404       .  A
C1409      H1425   1.083       .  S
C1410      C1411   1.403       .  A
C1410      H1426   1.083       .  S
C1411      C1421   1.406       .  A
C1411      C1412   1.412       .  A
C1412      C1418   1.413       .  A
C1412      C1413   1.417       .  A
C1413      C1415   1.411       .  A
C1413      C1414   1.413       .  A
C1414      C1422   1.408       .  A
C1415      C1424   1.408       .  A
C1415      C1416   1.406       .  A
C1416      C1417   1.402       .  A
C1416      H1427   1.084       .  S
C1417      C1418   1.405       .  A
C1417      H1428   1.084       .  S
C1418      C1419   1.409       .  A
C1419      C1420   1.407       .  A
C1419      H1429   1.084       .  S
C1420      C1421   1.405       .  A
C1421      H1430   1.084       .  S
C1422      C1423   1.407       .  A
C1422      H1431   1.084       .  S
C1423      C1424   1.412       .  A
C1424      H1432   1.084       .  S
C1433      C1434   1.396       .  A
C1433      C1438   1.402       .  A
C1433      H1449   1.084       .  S
C1434      C1435   1.402       .  A
C1434      H1450   1.084       .  S
C1435      C1445   1.398       .  A
C1435      C1436   1.411       .  A
C1436      C1442   1.412       .  A
C1436      C1437   1.410       .  A
C1437      C1439   1.413       .  A
C1437      C1438   1.412       .  A
C1438      C1446   1.399       .  A
C1439      C1448   1.404       .  A
C1439      C1440   1.404       .  A
C1440      C1441   1.400       .  A
C1440      H1451   1.083       .  S
C1441      C1442   1.404       .  A
C1441      H1452   1.084       .  S
C1442      C1443   1.403       .  A
C1443      C1444   1.407       .  A
C1443      H1453   1.084       .  S
C1444      C1445   1.406       .  A
C1445      H1454   1.084       .  S
C1446      C1447   1.402       .  A
C1446      H1455   1.085       .  S
C1447      C1448   1.404       .  A
C1448      H1456   1.084       .  S
C1457      C1458   1.400       .  A
C1457      C1462   1.403       .  A
C1457      H1473   1.084       .  S
C1458      C1459   1.404       .  A
C1458      H1474   1.083       .  S
C1459      C1469   1.406       .  A
C1459      C1460   1.412       .  A
C1460      C1466   1.411       .  A
C1460      C1461   1.414       .  A
C1461      C1463   1.413       .  A
C1461      C1462   1.412       .  A
C1462      C1470   1.405       .  A
C1463      C1472   1.405       .  A
C1463      C1464   1.404       .  A
C1464      C1465   1.400       .  A
C1464      H1475   1.084       .  S
C1465      C1466   1.404       .  A
C1465      H1476   1.084       .  S
C1466      C1467   1.404       .  A
C1467      C1468   1.409       .  A
C1467      H1477   1.084       .  S
C1468      C1469   1.409       .  A
C1469      H1478   1.084       .  S
C1470      C1471   1.405       .  A
C1470      H1479   1.084       .  S
C1471      C1472   1.405       .  A
C1472      H1480   1.084       .  S
C1481      C1482   1.399       .  A
C1481      C1486   1.403       .  A
C1481      H1497   1.083       .  S
C1482      C1483   1.403       .  A
C1482      H1498   1.084       .  S
C1483      C1493   1.404       .  A
C1483      C1484   1.413       .  A
C1484      C1490   1.412       .  A
C1484      C1485   1.411       .  A
C1485      C1487   1.412       .  A
C1485      C1486   1.413       .  A
C1486      C1494   1.403       .  A
C1487      C1496   1.401       .  A
C1487      C1488   1.403       .  A
C1488      C1489   1.398       .  A
C1488      H1499   1.084       .  S
C1489      C1490   1.403       .  A
C1489      H1500   1.084       .  S
C1490      C1491   1.401       .  A
C1491      C1492   1.402       .  A
C1491      H1501   1.085       .  S
C1492      C1493   1.402       .  A
C1493      H1502   1.084       .  S
C1494      C1495   1.403       .  A
C1494      H1503   1.084       .  S
C1495      C1496   1.403       .  A
C1496      H1504   1.084       .  S
C1505      C1506   1.399       .  A
C1505      C1510   1.404       .  A
C1505      H1521   1.084       .  S
C1506      C1507   1.403       .  A
C1506      H1522   1.084       .  S
C1507      C1517   1.402       .  A
C1507      C1508   1.412       .  A
C1508      C1514   1.412       .  A
C1508      C1509   1.413       .  A
C1509      C1511   1.412       .  A
C1509      C1510   1.411       .  A
C1510      C1518   1.403       .  A
C1511      C1520   1.405       .  A
C1511      C1512   1.404       .  A
C1512      C1513   1.400       .  A
C1512      H1523   1.083       .  S
C1513      C1514   1.403       .  A
C1513      H1524   1.084       .  S
C1514      C1515   1.404       .  A
C1515      C1516   1.404       .  A
C1515      H1525   1.084       .  S
C1516      C1517   1.403       .  A
C1517      H1526   1.084       .  S
C1518      C1519   1.408       .  A
C1518      H1527   1.084       .  S
C1519      C1520   1.408       .  A
C1520      H1528   1.084       .  S
C1529      C1530   1.396       .  A
C1529      C1534   1.402       .  A
C1529      H1545   1.084       .  S
C1530      C1531   1.403       .  A
C1530      H1546   1.084       .  S
C1531      C1541   1.397       .  A
C1531      C1532   1.411       .  A
C1532      C1538   1.411       .  A
C1532      C1533   1.407       .  A
C1533      C1535   1.413       .  A
C1533      C1534   1.412       .  A
C1534      C1542   1.396       .  A
C1535      C1544   1.399       .  A
C1535      C1536   1.402       .  A
C1536      C1537   1.398       .  A
C1536      H1547   1.084       .  S
C1537      C1538   1.403       .  A
C1537      H1548   1.084       .  S
C1538      C1539   1.399       .  A
C1539      C1540   1.406       .  A
C1539      H1549   1.084       .  S
C1540      C1541   1.406       .  A
C1541      H1550   1.084       .  S
C1542      C1543   1.399       .  A
C1542      H1551   1.085       .  S
C1543      C1544   1.401       .  A
C1544      H1552   1.084       .  S
C1553      C1554   1.396       .  A
C1553      C1558   1.402       .  A
C1553      H1569   1.084       .  S
C1554      C1555   1.402       .  A
C1554      H1570   1.084       .  S
C1555      C1565   1.396       .  A
C1555      C1556   1.411       .  A
C1556      C1562   1.414       .  A
C1556      C1557   1.407       .  A
C1557      C1559   1.410       .  A
C1557      C1558   1.412       .  A
C1558      C1566   1.399       .  A
C1559      C1568   1.397       .  A
C1559      C1560   1.403       .  A
C1560      C1561   1.397       .  A
C1560      H1571   1.084       .  S
C1561      C1562   1.402       .  A
C1561      H1572   1.084       .  S
C1562      C1563   1.400       .  A
C1563      C1564   1.400       .  A
C1563      H1573   1.084       .  S
C1564      C1565   1.402       .  A
C1565      H1574   1.085       .  S
C1566      C1567   1.404       .  A
C1566      H1575   1.084       .  S
C1567      C1568   1.407       .  A
C1568      H1576   1.084       .  S
C1577      C1578   1.397       .  A
C1577      C1582   1.403       .  A
C1577      H1593   1.084       .  S
C1578      C1579   1.403       .  A
C1578      H1594   1.084       .  S
C1579      C1589   1.398       .  A
C1579      C1580   1.411       .  A
C1580      C1586   1.411       .  A
C1580      C1581   1.406       .  A
C1581      C1583   1.410       .  A
C1581      C1582   1.411       .  A
C1582      C1590   1.399       .  A
C1583      C1592   1.395       .  A
C1583      C1584   1.402       .  A
C1584      C1585   1.395       .  A
C1584      H1595   1.084       .  S
C1585      C1586   1.402       .  A
C1585      H1596   1.084       .  S
C1586      C1587   1.396       .  A
C1587      C1588   1.404       .  A
C1587      H1597   1.085       .  S
C1588      C1589   1.405       .  A
C1589      H1598   1.084       .  S
C1590      C1591   1.407       .  A
C1590      H1599   1.084       .  S
C1591      C1592   1.405       .  A
C1592      H1600   1.084       .  S
C1601      C1602   1.403       .  A
C1601      C1606   1.405       .  A
C1601      H1617   1.083       .  S
C1602      C1603   1.405       .  A
C1602      H1618   1.083       .  S
C1603      C1613   1.411       .  A
C1603      C1604   1.413       .  A
C1604      C1610   1.409       .  A
C1604      C1605   1.414       .  A
C1605      C1607   1.413       .  A
C1605      C1606   1.411       .  A
C1606      C1614   1.407       .  A
C1607      C1616   1.401       .  A
C1607      C1608   1.402       .  A
C1608      C1609   1.396       .  A
C1608      H1619   1.084       .  S
C1609      C1610   1.403       .  A
C1609      H1620   1.084       .  S
C1610      C1611   1.398       .  A
C1611      C1612   1.409       .  A
C1611      H1621   1.084       .  S
C1612      C1613   1.411       .  A
C1613      H1622   1.084       .  S
C1614      C1615   1.410       .  A
C1614      H1623   1.084       .  S
C1615      C1616   1.404       .  A
C1616      H1624   1.084       .  S
C1625      C1626   1.395       .  A
C1625      C1630   1.402       .  A
C1625      H1641   1.084       .  S
C1626      C1627   1.402       .  A
C1626      H1642   1.084       .  S
C1627      C1637   1.396       .  A
C1627      C1628   1.412       .  A
C1628      C1634   1.411       .  A
C1628      C1629   1.404       .  A
C1629      C1631   1.412       .  A
C1629      C1630   1.412       .  A
C1630      C1638   1.394       .  A
C1631      C1640   1.395       .  A
C1631      C1632   1.401       .  A
C1632      C1633   1.395       .  A
C1632      H1643   1.084       .  S
C1633      C1634   1.402       .  A
C1633      H1644   1.084       .  S
C1634      C1635   1.395       .  A
C1635      C1636   1.403       .  A
C1635      H1645   1.085       .  S
C1636      C1637   1.403       .  A
C1637      H1646   1.085       .  S
C1638      C1639   1.401       .  A
C1638      H1647   1.085       .  S
C1639      C1640   1.401       .  A
C1640      H1648   1.085       .  S
C1649      C1650   1.398       .  A
C1649      C1654   1.403       .  A
C1649      H1665   1.084       .  S
C1650      C1651   1.403       .  A
C1650      H1666   1.083       .  S
C1651      C1661   1.401       .  A
C1651      C1652   1.412       .  A
C1652      C1658   1.412       .  A
C1652      C1653   1.410       .  A
C1653      C1655   1.410       .  A
C1653      C1654   1.413       .  A
C1654      C1662   1.403       .  A
C1655      C1664   1.399       .  A
C1655      C1656   1.403       .  A
C1656      C1657   1.398       .  A
C1656      H1667   1.084       .  S
C1657      C1658   1.403       .  A
C1657      H1668   1.084       .  S
C1658      C1659   1.401       .  A
C1659      C1660   1.406       .  A
C1659      H1669   1.085       .  S
C1660      C1661   1.403       .  A
C1661      H1670   1.084   1_554  S
C1662      C1663   1.403       .  A
C1662      H1671   1.084       .  S
C1663      C1664   1.406       .  A
C1664      H1672   1.085       .  S
C1673      C1674   1.400       .  A
C1673      C1678   1.403       .  A
C1673      H1689   1.084       .  S
C1674      C1675   1.404       .  A
C1674      H1690   1.084       .  S
C1675      C1685   1.403       .  A
C1675      C1676   1.412       .  A
C1676      C1682   1.412       .  A
C1676      C1677   1.408       .  A
C1677      C1679   1.411       .  A
C1677      C1678   1.413       .  A
C1678      C1686   1.404       .  A
C1679      C1688   1.394       .  A
C1679      C1680   1.402       .  A
C1680      C1681   1.395       .  A
C1680      H1691   1.084       .  S
C1681      C1682   1.401       .  A
C1681      H1692   1.084       .  S
C1682      C1683   1.396       .  A
C1683      C1684   1.401       .  A
C1683      H1693   1.085       .  S
C1684      C1685   1.405       .  A
C1685      H1694   1.084       .  S
C1686      C1687   1.403       .  A
C1686      H1695   1.084       .  S
C1687      C1688   1.402       .  A
C1688      H1696   1.085       .  S
C1697      C1698   1.397       .  A
C1697      C1702   1.403       .  A
C1697      H1713   1.084       .  S
C1698      C1699   1.402       .  A
C1698      H1714   1.084       .  S
C1699      C1709   1.399       .  A
C1699      C1700   1.412       .  A
C1700      C1706   1.412       .  A
C1700      C1701   1.411       .  A
C1701      C1703   1.411       .  A
C1701      C1702   1.411       .  A
C1702      C1710   1.400       .  A
C1703      C1712   1.404       .  A
C1703      C1704   1.404       .  A
C1704      C1705   1.400       .  A
C1704      H1715   1.084       .  S
C1705      C1706   1.404       .  A
C1705      H1716   1.084       .  S
C1706      C1707   1.403       .  A
C1707      C1708   1.406       .  A
C1707      H1717   1.084       .  S
C1708      C1709   1.403       .  A
C1709      H1718   1.085       .  S
C1710      C1711   1.407       .  A
C1710      H1719   1.084       .  S
C1711      C1712   1.409       .  A
C1712      H1720   1.084       .  S
C1721      C1722   1.399       .  A
C1721      C1726   1.404       .  A
C1721      H1737   1.084       .  S
C1722      C1723   1.403       .  A
C1722      H1738   1.084       .  S
C1723      C1733   1.403       .  A
C1723      C1724   1.413       .  A
C1724      C1730   1.412       .  A
C1724      C1725   1.411       .  A
C1725      C1727   1.412       .  A
C1725      C1726   1.412       .  A
C1726      C1734   1.403       .  A
C1727      C1736   1.402       .  A
C1727      C1728   1.403       .  A
C1728      C1729   1.398       .  A
C1728      H1739   1.084       .  S
C1729      C1730   1.403       .  A
C1729      H1740   1.084       .  S
C1730      C1731   1.401       .  A
C1731      C1732   1.403       .  A
C1731      H1741   1.084       .  S
C1732      C1733   1.404       .  A
C1733      H1742   1.084       .  S
C1734      C1735   1.406       .  A
C1734      H1743   1.084       .  S
C1735      C1736   1.406       .  A
C1736      H1744   1.085       .  S
C1745      C1746   1.395       .  A
C1745      C1750   1.402       .  A
C1745      H1761   1.084       .  S
C1746      C1747   1.401       .  A
C1746      H1762   1.084       .  S
C1747      C1757   1.398       .  A
C1747      C1748   1.413       .  A
C1748      C1754   1.411       .  A
C1748      C1749   1.409       .  A
C1749      C1751   1.413       .  A
C1749      C1750   1.410       .  A
C1750      C1758   1.396       .  A
C1751      C1760   1.406       .  A
C1751      C1752   1.404       .  A
C1752      C1753   1.401       .  A
C1752      H1763   1.084       .  S
C1753      C1754   1.404       .  A
C1753      H1764   1.084       .  S
C1754      C1755   1.402       .  A
C1755      C1756   1.406       .  A
C1755      H1765   1.084       .  S
C1756      C1757   1.399       .  A
C1757      H1766   1.085       .  S
C1758      C1759   1.404       .  A
C1758      H1767   1.085       .  S
C1759      C1760   1.406       .  A
C1760      H1768   1.084       .  S
