geometry optimzed in LAMMPS
_audit_creation_date              2020-11-30 
_audit_creation_method            'lammps2cif' 
_symmetry_space_group_name_H-M    'P1' 
_symmetry_Int_Tables_number       1 
_symmetry_cell_setting            triclinic 
loop_ 
_symmetry_equiv_pos_as_xyz 
  x,y,z 
_cell_length_a                    43.13648735 
_cell_length_b                    43.30679720150741 
_cell_length_c                    51.916817974523674 
_cell_angle_alpha                 89.94607980053313 
_cell_angle_beta                  89.90583876982627 
_cell_angle_gamma                 120.42847740367773 
loop_ 
_atom_site_label 
_atom_site_type_symbol 
_atom_site_fract_x 
_atom_site_fract_y 
_atom_site_fract_z 
_atom_site_charge 
Zn1        Zn  0.79699804  0.33238110  0.05991274     1.49700
Zn2        Zn  0.84035430  0.36923374  0.10883334     1.49400
Zn3        Zn  0.81785170  0.28878458  0.09977483     1.49100
Zn4        Zn  0.87658307  0.35011760  0.06319991     1.49500
O5          O  0.83281413  0.33468919  0.08268056    -1.83400
O6          O  0.78879771  0.37430063  0.06466649    -0.74000
O7          O  0.82052349  0.34459939  0.14216781    -0.73800
O8          O  0.76273972  0.25799630  0.09676903    -0.73300
O9          O  0.81847992  0.40009936  0.10052616    -0.74000
O10         O  0.75069299  0.28783852  0.06722352    -0.73600
O11         O  0.83139072  0.29971078  0.13844863    -0.74200
O12         O  0.88359656  0.30839227  0.05925198    -0.73600
O13         O  0.89294227  0.39816466  0.11616947    -0.74300
O14         O  0.84132159  0.26253106  0.08133595    -0.73700
O15         O  0.92006591  0.38892597  0.08292010    -0.74200
O16         O  0.87070609  0.35832422  0.02516100    -0.74100
O17         O  0.81103786  0.32957908  0.02381975    -0.73900
C18         C  0.79805076  0.39813264  0.08209630     0.77900
C19         C  0.82694828  0.32167657  0.15229660     0.78400
C20         C  0.74050481  0.26134269  0.08242074     0.77400
C21         C  0.86771048  0.27546410  0.06539359     0.77700
C22         C  0.92120093  0.40288184  0.10486998     0.78900
C23         C  0.84125964  0.34198357  0.01251618     0.77900
Zn24       Zn  0.80676369  0.33237062  0.31205659     1.49700
Zn25       Zn  0.88512486  0.34671314  0.31186544     1.49400
Zn26       Zn  0.85638437  0.36891736  0.35946640     1.49100
Zn27       Zn  0.82432893  0.28550659  0.35010271     1.49500
O28         O  0.84312222  0.33266735  0.33352944    -1.83400
O29         O  0.81753911  0.33026082  0.27527814    -0.74000
O30         O  0.93194828  0.38546937  0.32951050    -0.73800
O31         O  0.83607962  0.40049712  0.35297573    -0.73300
O32         O  0.87685095  0.35476054  0.27380456    -0.74000
O33         O  0.80376003  0.37651287  0.31764065    -0.73600
O34         O  0.90937533  0.39878890  0.36324855    -0.74200
O35         O  0.83441452  0.29270634  0.38941815    -0.73600
O36         O  0.88811509  0.30308709  0.30751940    -0.74300
O37         O  0.84130795  0.34711849  0.39377143    -0.73700
O38         O  0.84580993  0.25830154  0.33078662    -0.74200
O39         O  0.76929943  0.25685242  0.34668192    -0.74100
O40         O  0.75840174  0.28980067  0.31934345    -0.73900
C41         C  0.84641086  0.34148474  0.26245632     0.77900
C42         C  0.93626566  0.40229364  0.35073006     0.78400
C43         C  0.81588559  0.40033848  0.33512813     0.77400
C44         C  0.83773621  0.31857631  0.40343849     0.77700
C45         C  0.87094200  0.27019956  0.31381955     0.78900
C46         C  0.74745685  0.26229243  0.33358686     0.77900
Zn47       Zn  0.51055128  0.13085181  0.06972837     1.49700
Zn48       Zn  0.52761149  0.19194335  0.11130858     1.49400
Zn49       Zn  0.47354334  0.17937986  0.06684044     1.49100
Zn50       Zn  0.45094662  0.12298413  0.11100168     1.49500
O51         O  0.49102200  0.15607294  0.08953961    -1.83400
O52         O  0.56522423  0.15839584  0.07252366    -0.74000
O53         O  0.53215837  0.24014492  0.10603734    -0.73800
O54         O  0.48105732  0.17080351  0.03058891    -0.73300
O55         O  0.57572157  0.19707663  0.10419800    -0.74000
O56         O  0.49869993  0.13052083  0.03122201    -0.73600
O57         O  0.49674835  0.23200561  0.07264974    -0.74200
O58         O  0.40325160  0.10959369  0.09293541    -0.73600
O59         O  0.51555591  0.17862317  0.14796804    -0.74300
O60         O  0.42055732  0.15773254  0.06836423    -0.73700
O61         O  0.45691344  0.13878116  0.14871157    -0.74200
O62         O  0.45406687  0.07932945  0.11481740    -0.74100
O63         O  0.49265316  0.08062793  0.08570880    -0.73900
C64         C  0.58678529  0.18308279  0.08772952     0.77900
C65         C  0.51906238  0.25217520  0.08956677     0.78400
C66         C  0.48888397  0.14983071  0.01898662     0.77400
C67         C  0.39632931  0.12733451  0.07652757     0.77700
C68         C  0.48665654  0.15872643  0.16030278     0.78900
C69         C  0.47116409  0.06569457  0.10470597     0.77900
Zn70       Zn  0.53708029  0.20089611  0.36228856     1.49700
Zn71       Zn  0.49268349  0.19366277  0.31356822     1.49400
Zn72       Zn  0.51566143  0.13690422  0.32257993     1.49100
Zn73       Zn  0.45712931  0.14039738  0.35948509     1.49500
O74         O  0.50079550  0.16748901  0.33970678    -1.83400
O75         O  0.54379154  0.25026748  0.35743936    -0.74000
O76         O  0.51387777  0.19026011  0.28077723    -0.73800
O77         O  0.57086359  0.16127784  0.32547936    -0.73300
O78         O  0.51267261  0.24556880  0.32219875    -0.74000
O79         O  0.58384300  0.20361081  0.35486529    -0.73600
O80         O  0.50241935  0.13428775  0.28392265    -0.74200
O81         O  0.45057322  0.09203969  0.36471686    -0.73600
O82         O  0.44033387  0.16974745  0.30594028    -0.74300
O83         O  0.49106553  0.08737520  0.34113414    -0.73700
O84         O  0.41315620  0.13432261  0.33956127    -0.74200
O85         O  0.46340436  0.15777103  0.39676074    -0.74100
O86         O  0.52302674  0.18456583  0.39856823    -0.73900
C87         C  0.53312747  0.26420920  0.34053190     0.77900
C88         C  0.50704738  0.16098127  0.27026820     0.78400
C89         C  0.59355365  0.18713480  0.33954943     0.77400
C90         C  0.46562418  0.07459206  0.35786327     0.77700
C91         C  0.41188938  0.14660937  0.31740118     0.78900
C92         C  0.49248961  0.16958570  0.40967225     0.77900
Zn93       Zn  0.64003070  0.53208055  0.06598444     1.49700
Zn94       Zn  0.65144137  0.46688776  0.06379499     1.49400
Zn95       Zn  0.69985402  0.52911816  0.10297617     1.49100
Zn96       Zn  0.61504973  0.47674419  0.11204716     1.49500
O97         O  0.65216825  0.50188552  0.08660746    -1.83400
O98         O  0.63282497  0.51914833  0.02772149    -0.74000
O99         O  0.69340503  0.46065546  0.06966006    -0.73800
O100        O  0.72835898  0.57847911  0.08412966    -0.73300
O101        O  0.65489797  0.48273816  0.02796706    -0.74000
O102        O  0.68420175  0.57946442  0.06262368    -0.73600
O103        O  0.72764166  0.50204948  0.09824756    -0.74200
O104        O  0.63599982  0.48693372  0.14696074    -0.73600
O105        O  0.60777476  0.41861104  0.06831765    -0.74300
O106        O  0.69248068  0.53175978  0.14235160    -0.73700
O107        O  0.58684863  0.42346511  0.10627566    -0.74200
O108        O  0.58254154  0.49669524  0.11417049    -0.74100
O109        O  0.60033784  0.53764207  0.08310655    -0.73900
C110        C  0.64586039  0.50243841  0.01589223     0.77900
C111        C  0.72123835  0.47559145  0.08376314     0.78400
C112        C  0.71730825  0.59353992  0.06825649     0.77400
C113        C  0.66541187  0.51109357  0.15659832     0.77700
C114        C  0.58641583  0.40467045  0.08728748     0.78900
C115        C  0.58079628  0.52174091  0.10277072     0.77900
Zn116      Zn  0.69336572  0.55310271  0.36032430     1.49700
Zn117      Zn  0.67895999  0.47613868  0.36095307     1.49400
Zn118      Zn  0.63274815  0.49369913  0.32160264     1.49100
Zn119      Zn  0.71573251  0.52275694  0.31336661     1.49500
O120        O  0.67940265  0.51135731  0.33879300    -1.83400
O121        O  0.70208780  0.54620148  0.39793448    -0.74000
O122        O  0.63619473  0.42940041  0.35369398    -0.73800
O123        O  0.60589936  0.51591900  0.34042459    -0.73300
O124        O  0.67478689  0.48697700  0.39716733    -0.74000
O125        O  0.64992064  0.55639919  0.36507919    -0.73600
O126        O  0.60271362  0.43872619  0.32576329    -0.74200
O127        O  0.69521142  0.50984371  0.27848024    -0.73600
O128        O  0.72232429  0.47118098  0.35644280    -0.74300
O129        O  0.64172789  0.50527128  0.28230820    -0.73700
O130        O  0.74555204  0.50044441  0.31984195    -0.74200
O131        O  0.74657915  0.57501262  0.31061786    -0.74100
O132        O  0.73191891  0.59891273  0.34285780    -0.73900
C133        C  0.68646831  0.51601868  0.40953477     0.77900
C134        C  0.60825281  0.41774140  0.33983648     0.78400
C135        C  0.61732995  0.54016080  0.35789149     0.77400
C136        C  0.66779442  0.50845933  0.26832437     0.77700
C137        C  0.74521547  0.48096937  0.33826812     0.78900
C138        C  0.74948437  0.60212435  0.32221368     0.77900
Zn139      Zn  0.32759808  0.87110429  0.14757490     1.49700
Zn140      Zn  0.33588882  0.80386472  0.14714040     1.49400
Zn141      Zn  0.38154739  0.86552178  0.18785940     1.49100
Zn142      Zn  0.29444572  0.81665675  0.19190429     1.49500
O143        O  0.33556375  0.83940502  0.16908298    -1.83400
O144        O  0.31569388  0.85448802  0.11090905    -0.74000
O145        O  0.37931700  0.79949780  0.15341408    -0.73800
O146        O  0.41257075  0.91670004  0.17220549    -0.73300
O147        O  0.33777230  0.81804438  0.11061616    -0.74000
O148        O  0.37417185  0.91519953  0.14296730    -0.73600
O149        O  0.41078336  0.84029294  0.18315123    -0.74200
O150        O  0.31182256  0.82104190  0.22721511    -0.73600
O151        O  0.29178186  0.75552677  0.15273698    -0.74300
O152        O  0.36977940  0.86344117  0.22663099    -0.73700
O153        O  0.26257066  0.76436312  0.18455134    -0.74200
O154        O  0.26654896  0.84237802  0.19386496    -0.74100
O155        O  0.29322814  0.88428249  0.16398269    -0.73900
C156        C  0.32751588  0.83699980  0.09876467     0.77900
C157        C  0.40650498  0.81505096  0.16815618     0.78400
C158        C  0.40521522  0.93043624  0.15297632     0.77400
C159        C  0.34074534  0.84222847  0.23886373     0.77700
C160        C  0.26557476  0.74381703  0.16852679     0.78900
C161        C  0.27091583  0.87036037  0.18254248     0.77900
Zn162      Zn  0.34727941  0.87874522  0.44034068     1.49700
Zn163      Zn  0.38057191  0.85504932  0.39714221     1.49400
Zn164      Zn  0.33713332  0.80154031  0.44169070     1.49100
Zn165      Zn  0.29291066  0.81812026  0.40086870     1.49500
O166        O  0.33878337  0.83795446  0.41958846    -1.83400
O167        O  0.38321979  0.92605770  0.42341121    -0.74000
O168        O  0.41269881  0.83456376  0.40560617    -0.73800
O169        O  0.33631352  0.81489752  0.47772993    -0.73300
O170        O  0.40886811  0.90911478  0.39407459    -0.74000
O171        O  0.35873360  0.87372364  0.47705799    -0.73600
O172        O  0.38041581  0.79650349  0.43664041    -0.74200
O173        O  0.26319830  0.76286672  0.40558119    -0.73600
O174        O  0.36275692  0.84083620  0.36188664    -0.74300
O175        O  0.29340226  0.75316970  0.43608175    -0.73700
O176        O  0.30577995  0.82811777  0.36231461    -0.74200
O177        O  0.26311493  0.84057218  0.41523679    -0.74100
O178        O  0.30149362  0.87873795  0.44407632    -0.73900
C179        C  0.40528006  0.93355544  0.40477690     0.77900
C180        C  0.40784859  0.81049694  0.42191909     0.78400
C181        C  0.34715981  0.84438724  0.48934802     0.77400
C182        C  0.26696226  0.74162581  0.42069576     0.77700
C183        C  0.33439334  0.83463959  0.35012390     0.78900
C184        C  0.27083733  0.86340177  0.43340696     0.77900
Zn185      Zn  0.18637566  0.52915026  0.19378521     1.49700
Zn186      Zn  0.17010838  0.46697923  0.15324674     1.49400
Zn187      Zn  0.10955805  0.46166697  0.19348901     1.49100
Zn188      Zn  0.13645282  0.51837394  0.14850166     1.49500
O189        O  0.15065364  0.49332867  0.17198940    -1.83400
O190        O  0.23349674  0.53450746  0.18626312    -0.74000
O191        O  0.14839409  0.41568285  0.16901776    -0.73800
O192        O  0.11680682  0.47682400  0.23123672    -0.73300
O193        O  0.22546239  0.49348908  0.15724919    -0.74000
O194        O  0.17566246  0.51480717  0.22997859    -0.73600
O195        O  0.10853445  0.41544554  0.19646975    -0.74200
O196        O  0.08351833  0.49593818  0.14749890    -0.73600
O197        O  0.15938670  0.46738886  0.11444969    -0.74300
O198        O  0.06240787  0.45243549  0.17671031    -0.73700
O199        O  0.14721481  0.51148734  0.11301643    -0.74200
O200        O  0.16048393  0.57130384  0.15432234    -0.74100
O201        O  0.19255248  0.57790380  0.18933988    -0.73900
C202        C  0.24601671  0.51982419  0.17178128     0.77900
C203        C  0.12479539  0.40055307  0.18687397     0.78400
C204        C  0.14704258  0.49511825  0.24257313     0.77400
C205        C  0.05736082  0.46865318  0.15800376     0.77700
C206        C  0.15276087  0.48879771  0.10171656     0.78900
C207        C  0.18216727  0.59096065  0.17172159     0.77900
Zn208      Zn  0.20067469  0.52687713  0.39955033     1.49700
Zn209      Zn  0.13692553  0.51001731  0.43860374     1.49400
Zn210      Zn  0.13479308  0.44988678  0.39992528     1.49100
Zn211      Zn  0.18698626  0.47426858  0.44564987     1.49500
O212        O  0.16452188  0.49079677  0.42144098    -1.83400
O213        O  0.20655197  0.57514285  0.40631054    -0.74000
O214        O  0.08652963  0.48822697  0.42049072    -0.73800
O215        O  0.15195376  0.45580890  0.36324157    -0.73300
O216        O  0.16387664  0.56562841  0.43460155    -0.74000
O217        O  0.18613489  0.51505938  0.36301545    -0.73600
O218        O  0.08937604  0.44883922  0.39457620    -0.74200
O219        O  0.16268400  0.42048183  0.44818506    -0.73600
O220        O  0.13516382  0.49823685  0.47762308    -0.74300
O221        O  0.12340824  0.40278672  0.41633621    -0.73700
O222        O  0.18017204  0.48709503  0.48038272    -0.74200
O223        O  0.23965760  0.49581413  0.43907571    -0.74100
O224        O  0.24841097  0.53031055  0.40487588    -0.73900
C225        C  0.19074663  0.58691849  0.42051569     0.77900
C226        C  0.07332705  0.46476663  0.40246248     0.78400
C227        C  0.16798176  0.48553168  0.35117267     0.77400
C228        C  0.13653727  0.39558948  0.43586757     0.77700
C229        C  0.15634586  0.49179078  0.49095302     0.78900
C230        C  0.26010110  0.51750345  0.42184273     0.77900
Zn231      Zn  0.47300224  0.63159386  0.14474047     1.49700
Zn232      Zn  0.52341783  0.64609999  0.19213728     1.49400
Zn233      Zn  0.53355869  0.71164724  0.15666083     1.49100
Zn234      Zn  0.46516530  0.66829548  0.19343489     1.49500
O235        O  0.49933019  0.66503538  0.17179342    -1.83400
O236        O  0.49290040  0.59948246  0.13880480    -0.74000
O237        O  0.57426072  0.68485583  0.19659264    -0.73800
O238        O  0.53727664  0.70358546  0.11780267    -0.73300
O239        O  0.52462592  0.60497265  0.17391487    -0.74000
O240        O  0.48171441  0.65754238  0.11175358    -0.73600
O241        O  0.58309883  0.73328162  0.17544180    -0.74200
O242        O  0.46529779  0.71361710  0.18605058    -0.73600
O243        O  0.50568643  0.63683286  0.22909092    -0.74300
O244        O  0.51219498  0.74473652  0.15990713    -0.73700
O245        O  0.47872698  0.66899022  0.23014220    -0.74200
O246        O  0.41501187  0.62651481  0.18742866    -0.74100
O247        O  0.41970944  0.60156936  0.15148871    -0.73900
C248        C  0.51291893  0.59151267  0.15168230     0.77900
C249        C  0.59442731  0.71761034  0.19047437     0.78400
C250        C  0.51157589  0.68232105  0.10296493     0.77400
C251        C  0.48488443  0.74112216  0.17231749     0.77700
C252        C  0.49323821  0.65356444  0.24164088     0.78900
C253        C  0.40079232  0.60287172  0.16981272     0.77900
Zn254      Zn  0.54126456  0.65507355  0.44370976     1.49700
Zn255      Zn  0.48559128  0.62241816  0.39869660     1.49400
Zn256      Zn  0.47259239  0.66223982  0.44340651     1.49100
Zn257      Zn  0.53433071  0.70895110  0.40262777     1.49500
O258        O  0.50910102  0.66291987  0.42184414    -1.83400
O259        O  0.55087966  0.61676423  0.42843750    -0.74000
O260        O  0.43312936  0.59003400  0.40592821    -0.84600
O261        O  0.48573753  0.66537841  0.48002097    -0.73300
O262        O  0.51064796  0.59466035  0.39705702    -0.74000
O263        O  0.52782303  0.65032562  0.48195026    -0.73600
O264        O  0.42472846  0.61804137  0.43858633    -0.74200
O265        O  0.51019057  0.73889630  0.40890265    -0.73600
O266        O  0.49037814  0.63962801  0.36319410    -0.74300
O267        O  0.46703234  0.70422204  0.43642935    -0.73700
O268        O  0.53005743  0.69826405  0.36377020    -0.74200
O269        O  0.58703466  0.73831066  0.41532425    -0.74100
O270        O  0.58781567  0.70024831  0.44391859    -0.73900
C271        C  0.53701726  0.59613870  0.40898169     0.77900
C272        C  0.41280030  0.59234143  0.42259967     0.78400
C273        C  0.50702165  0.65927625  0.49293853     0.77400
C274        C  0.48339562  0.73267535  0.42306278     0.77700
C275        C  0.50990991  0.66910872  0.35164919     0.78900
C276        C  0.60287710  0.73052197  0.43280263     0.77900
Zn277      Zn  0.14144427  0.00163937  0.47089191     1.49700
Zn278      Zn  0.21936158  0.01393792  0.47285089     1.49400
Zn279      Zn  0.19408168  0.04711214  0.01539605     1.49100
Zn280      Zn  0.16196461  0.96069282  0.01166658     1.49500
O281        O  0.17982218  0.00609082  0.99277777    -1.83400
O282        O  0.15628359  0.00384034  0.43440355    -0.74000
O283        O  0.26385069  0.04696110  0.49420155    -0.73800
O284        O  0.16644248  0.07374975  0.00916107    -0.73300
O285        O  0.21564869  0.02717233  0.43564117    -0.74000
O286        O  0.13110612  0.04167016  0.47701879    -0.73600
O287        O  0.24783027  0.07995464  0.01602169    -0.74200
O288        O  0.17532940  0.97291160  0.04993901    -0.73600
O289        O  0.21985087  0.96877564  0.46702786    -0.74300
O290        O  0.18700303  0.02943936  0.05144259    -0.73700
O291        O  0.18157624  0.92989735  0.99482848    -0.74200
O292        O  0.10702708  0.93202806  0.00897524    -0.74100
O293        O  0.09607970  0.95582682  0.47695594    -0.73900
C294        C  0.18639961  0.01587959  0.42303849     0.77900
C295        C  0.27121266  0.07095803  0.01140021     0.78400
C296        C  0.14230188  0.06724470  0.99235303     0.77400
C297        C  0.18308200  0.00142250  0.06247260     0.77700
C298        C  0.20516914  0.93779712  0.47708578     0.78900
C299        C  0.08526625  0.92960609  0.49251158     0.77900
Zn300      Zn  0.22787635  0.03032984  0.22282066     1.49700
Zn301      Zn  0.16648872  0.97095023  0.26034850     1.49400
Zn302      Zn  0.19545446  0.05355357  0.26786995     1.49100
Zn303      Zn  0.14988166  0.01592940  0.21936098     1.49500
O304        O  0.18470536  0.01713604  0.24261224    -1.83400
O305        O  0.23106787  0.98659442  0.21952434    -0.74000
O306        O  0.17737226  0.98074651  0.29915007    -0.73800
O307        O  0.24838214  0.08136318  0.27434360    -0.73300
O308        O  0.18933172  0.94349011  0.24410536    -0.74000
O309        O  0.27294459  0.06719572  0.24219270    -0.73600
O310        O  0.17587417  0.03131377  0.30180675    -0.74200
O311        O  0.14432712  0.05941469  0.22363629    -0.73600
O312        O  0.11153712  0.94074230  0.25558206    -0.74300
O313        O  0.17540776  0.08535896  0.25907182    -0.73700
O314        O  0.10222147  0.97262272  0.22626878    -0.74200
O315        O  0.16356100  0.01144999  0.18341683    -0.74100
O316        O  0.22322713  0.03955795  0.18468029    -0.73900
C317        C  0.21467576  0.95440009  0.22746291     0.77900
C318        C  0.17643321  0.00515497  0.31243403     0.78400
C319        C  0.27574881  0.08328312  0.26347305     0.77400
C320        C  0.15484279  0.08365607  0.24088255     0.77700
C321        C  0.09046831  0.94523876  0.24077015     0.78900
C322        C  0.19371219  0.02335382  0.17212744     0.77900
Zn323      Zn  0.98751023  0.12660061  0.47295481     1.49700
Zn324      Zn  0.97610131  0.19212100  0.47457875     1.49400
Zn325      Zn  0.94429432  0.13681318  0.01999051     1.49100
Zn326      Zn  0.03264461  0.18719139  0.01272325     1.49500
O327        O  0.98463295  0.16078896  0.99588328    -1.83400
O328        O  0.98778839  0.13991489  0.43645055    -0.74000
O329        O  0.94091316  0.20347037  0.49273760    -0.73800
O330        O  0.91329653  0.08261507  0.01435700    -0.73300
O331        O  0.96658073  0.17721717  0.43687291    -0.74000
O332        O  0.94538722  0.07791178  0.47876933    -0.73600
O333        O  0.91508405  0.16170824  0.02340989    -0.74200
O334        O  0.02351594  0.18697391  0.05154452    -0.73600
O335        O  0.02137184  0.23786487  0.47118241    -0.74300
O336        O  0.96523171  0.14521536  0.05453717    -0.73700
O337        O  0.06279621  0.23857917  0.99701482    -0.74200
O338        O  0.06141297  0.16128041  0.00728831    -0.74100
O339        O  0.03131890  0.12319190  0.47868814    -0.73900
C340        C  0.97779652  0.15912211  0.42468636     0.77900
C341        C  0.91972040  0.19054389  0.01323441     0.78400
C342        C  0.91630619  0.06327423  0.99713659     0.77400
C343        C  0.99512966  0.16719536  0.06480811     0.77700
C344        C  0.05305823  0.25386885  0.48014512     0.78900
C345        C  0.05888376  0.13852323  0.49304869     0.77900
Zn346      Zn  0.98160987  0.19478049  0.22397041     1.49700
Zn347      Zn  0.95281995  0.13812391  0.26836531     1.49400
Zn348      Zn  0.99710930  0.13253090  0.22303922     1.49100
Zn349      Zn  0.03812787  0.19492195  0.26424052     1.49500
O350        O  0.99304608  0.16538449  0.24525805    -1.83400
O351        O  0.94439301  0.20296418  0.24183572    -0.74000
O352        O  0.92242594  0.08566737  0.25898654    -0.73800
O353        O  0.99911410  0.14702808  0.18665764    -0.73300
O354        O  0.92276701  0.16138744  0.27242436    -0.74000
O355        O  0.96965450  0.17675468  0.18735692    -0.73600
O356        O  0.95566414  0.08236446  0.22768235    -0.74200
O357        O  0.07204817  0.17471496  0.25905290    -0.73600
O358        O  0.97188914  0.14132485  0.30338842    -0.74300
O359        O  0.04253445  0.13311311  0.22930926    -0.73700
O360        O  0.02520823  0.19204313  0.30281189    -0.74200
O361        O  0.06474197  0.24668543  0.24948947    -0.74100
O362        O  0.02619609  0.24225258  0.21924238    -0.73900
C363        C  0.92399149  0.18820015  0.26134020     0.77900
C364        C  0.92816270  0.06753728  0.24233444     0.78400
C365        C  0.98505147  0.16271362  0.17504836     0.77400
C366        C  0.06980410  0.15065821  0.24362706     0.77700
C367        C  0.99862681  0.16662364  0.31497197     0.78900
C368        C  0.05650181  0.25975509  0.23032877     0.77900
Zn369      Zn  0.86903643  0.85527417  0.47292310     1.49700
Zn370      Zn  0.80444069  0.77668789  0.47258247     1.49400
Zn371      Zn  0.85950579  0.80420003  0.01795378     1.49100
Zn372      Zn  0.80465950  0.83306207  0.01479801     1.49500
O373        O  0.83389088  0.81832485  0.99488765    -1.83400
O374        O  0.85689595  0.84341738  0.43618142    -0.74000
O375        O  0.79381071  0.73047069  0.49172714    -0.73800
O376        O  0.91257397  0.82730098  0.00971161    -0.73300
O377        O  0.82216913  0.78409510  0.43516185    -0.74000
O378        O  0.91820368  0.86265253  0.47876780    -0.73600
O379        O  0.83380489  0.75045873  0.02203931    -0.74200
O380        O  0.80382080  0.81833072  0.05277227    -0.73600
O381        O  0.75822374  0.77535726  0.46720293    -0.74300
O382        O  0.85595307  0.81925136  0.05298583    -0.73700
O383        O  0.75461181  0.81241853  0.99778187    -0.74200
O384        O  0.82777078  0.88778800  0.01312104    -0.74100
O385        O  0.86984083  0.90081000  0.47980099    -0.73900
C386        C  0.83956664  0.81436873  0.42366727     0.77900
C387        C  0.80560097  0.72540017  0.01150483     0.78400
C388        C  0.93174904  0.85236921  0.99389043     0.77400
C389        C  0.82950217  0.81790964  0.06483360     0.77700
C390        C  0.74200931  0.79047462  0.47648274     0.78900
C391        C  0.85274968  0.91055930  0.49450570     0.77900
Zn392      Zn  0.86858596  0.85728406  0.22065790     1.49700
Zn393      Zn  0.86499128  0.81685144  0.26993890     1.49400
Zn394      Zn  0.80605192  0.83854612  0.26242285     1.49100
Zn395      Zn  0.80522575  0.77796704  0.22685090     1.49500
O396        O  0.83573410  0.82267428  0.24452161    -1.83400
O397        O  0.91976169  0.86906759  0.22585946    -0.74000
O398        O  0.86300591  0.83864629  0.30278462    -0.73800
O399        O  0.82906970  0.89284296  0.25692207    -0.73300
O400        O  0.91761190  0.83857129  0.26066248    -0.74000
O401        O  0.86819360  0.90238712  0.22553508    -0.73600
O402        O  0.80686406  0.82784845  0.30128302    -0.74200
O403        O  0.75515066  0.76896898  0.22598313    -0.73600
O404        O  0.84238539  0.76512030  0.27861497    -0.74300
O405        O  0.75409875  0.81273702  0.24749907    -0.73700
O406        O  0.80341564  0.73685065  0.24687791    -0.74200
O407        O  0.81730606  0.78099021  0.18869662    -0.74100
O408        O  0.85443025  0.83986093  0.18492342    -0.73900
C409        C  0.93543610  0.86016322  0.24253942     0.77900
C410        C  0.83432260  0.83260356  0.31406251     0.78400
C411        C  0.85305762  0.91373073  0.24079965     0.77400
C412        C  0.73849538  0.78453543  0.23356234     0.77700
C413        C  0.81813044  0.73651355  0.26813448     0.78900
C414        C  0.83517728  0.80907421  0.17495445     0.77900
C415        C  0.80679713  0.79509732  0.38161853    -0.20500
C416        C  0.83857944  0.81715561  0.39532997    -0.08600
C417        C  0.86790833  0.84532147  0.38226413     0.30300
C418        C  0.86546769  0.85108486  0.35611143    -0.20500
C419        C  0.83366618  0.82939246  0.34239754    -0.08600
C420        C  0.80421186  0.80126543  0.35536265     0.30300
F421        F  0.77357326  0.77890178  0.34245674    -0.19100
H422        H  0.78369253  0.77362872  0.39137439     0.18700
H423        H  0.88877340  0.87241650  0.34640460     0.18700
F424        F  0.89918630  0.86715456  0.39472895    -0.19100
C425        C  0.86298302  0.83011490  0.10578155    -0.20500
C426        C  0.82964581  0.81518195  0.09316822    -0.08600
C427        C  0.79787537  0.79523328  0.10756386     0.30300
C428        C  0.79972095  0.79108888  0.13423176    -0.20500
C429        C  0.83316999  0.80713736  0.14673737    -0.08600
C430        C  0.86477779  0.82636278  0.13225615     0.30300
F431        F  0.89747054  0.84181831  0.14382091    -0.19100
H432        H  0.88788577  0.84511694  0.09510630     0.18700
H433        H  0.77507446  0.77656895  0.14525006     0.18700
F434        F  0.76528793  0.77930049  0.09587458    -0.19100
C435        C  0.88133675  0.00863064  0.26131269    -0.20500
C436        C  0.90350775  0.02828519  0.24043444    -0.08600
C437        C  0.90427787  0.00963219  0.21851378     0.30300
C438        C  0.88555310  0.97236438  0.21831278    -0.20500
C439        C  0.86573485  0.95256950  0.23991614    -0.08600
C440        C  0.86258517  0.97102555  0.26113373     0.30300
F441        F  0.84352163  0.95299567  0.28233055    -0.19100
H442        H  0.88006002  0.02232242  0.27837803     0.18700
H443        H  0.88791307  0.95896038  0.20144830     0.18700
F444        F  0.92414843  0.02730164  0.19748047    -0.19100
C445        C  0.97772806  0.13150191  0.38283775    -0.20500
C446        C  0.98138835  0.16120700  0.39638621    -0.08600
C447        C  0.99306703  0.19364670  0.38311641     0.30300
C448        C  0.00101833  0.19611495  0.35673440    -0.20500
C449        C  0.99680594  0.16615859  0.34325371    -0.08600
C450        C  0.98492279  0.13375987  0.35651087     0.30300
F451        F  0.98023657  0.10421720  0.34392585    -0.19100
H452        H  0.96923725  0.10638476  0.39270246     0.18700
H453        H  0.00931197  0.22103580  0.34666000     0.18700
F454        F  0.99781154  0.22315155  0.39574827    -0.19100
C455        C  0.01830227  0.16718092  0.13475646    -0.20500
C456        C  0.98823234  0.16557086  0.14683709    -0.08600
C457        C  0.96206945  0.16699891  0.13176757     0.30300
C458        C  0.96541601  0.16875546  0.10503341    -0.20500
C459        C  0.99514343  0.16979240  0.09295415    -0.08600
C460        C  0.02195877  0.16961131  0.10797611     0.30300
F461        F  0.05056858  0.16992023  0.09677377    -0.19100
H462        H  0.03900867  0.16649483  0.14609445     0.18700
H463        H  0.94439093  0.16876002  0.09363300     0.18700
F464        F  0.93262061  0.16522211  0.14274379    -0.19100
C465        C  0.87863739  0.00444842  0.02008320    -0.20500
C466        C  0.89233030  0.02379685  0.99698483    -0.08600
C467        C  0.89465326  0.00549457  0.47076834     0.30300
C468        C  0.87906693  0.96842939  0.47125513    -0.20500
C469        C  0.86310306  0.94880076  0.49380407    -0.08600
C470        C  0.86304105  0.96697622  0.02046364     0.30300
F471        F  0.85253464  0.94932544  0.04330809    -0.19100
H472        H  0.88213006  0.01848551  0.03807243     0.18700
H473        H  0.88065475  0.95512497  0.45405799     0.18700
F474        F  0.91081448  0.02319940  0.44866717    -0.19100
C475        C  0.03335151  0.89847880  0.26214057    -0.20500
C476        C  0.05128724  0.91893365  0.24026735    -0.08600
C477        C  0.03090158  0.91625149  0.21831281     0.30300
C478        C  0.99345698  0.89553965  0.21887971    -0.20500
C479        C  0.97521229  0.87689341  0.24125132    -0.08600
C480        C  0.99564360  0.87767536  0.26272837     0.30300
F481        F  0.97930105  0.86012914  0.28481005    -0.19100
H482        H  0.04838920  0.89998735  0.27924972     0.18700
H483        H  0.97864971  0.89504782  0.20190125     0.18700
F484        F  0.04708920  0.93428487  0.19632291    -0.19100
C485        C  0.12492041  0.11217842  0.21806334    -0.20500
C486        C  0.14055065  0.10844699  0.24064271    -0.08600
C487        C  0.13782193  0.12460978  0.26350052     0.30300
C488        C  0.11690534  0.14102127  0.26410083    -0.20500
C489        C  0.09850755  0.14154204  0.24201117    -0.08600
C490        C  0.10426588  0.12863543  0.21865127     0.30300
F491        F  0.08854114  0.13047232  0.19651108    -0.19100
H492        H  0.12721411  0.10077091  0.20009814     0.18700
H493        H  0.11305861  0.15099616  0.28223410     0.18700
F494        F  0.15274874  0.12197818  0.28577893    -0.19100
C495        C  0.16067655  0.02027897  0.38147397    -0.20500
C496        C  0.18605242  0.01502074  0.39460583    -0.08600
C497        C  0.20708321  0.00442789  0.38059300     0.30300
C498        C  0.20253605  0.99918153  0.35386743    -0.20500
C499        C  0.17742241  0.00498014  0.34081340    -0.08600
C500        C  0.15662953  0.01572165  0.35487968     0.30300
F501        F  0.13217479  0.02165452  0.34286560    -0.19100
H502        H  0.14380947  0.02791151  0.39189796     0.18700
H503        H  0.21930095  0.99159180  0.34327349     0.18700
F504        F  0.23105919  0.99800025  0.39280098    -0.19100
C505        C  0.21894333  0.03311714  0.10116307    -0.20500
C506        C  0.18834091  0.00342762  0.09058284    -0.08600
C507        C  0.16110649  0.97919589  0.10704622     0.30300
C508        C  0.16347726  0.98587121  0.13353850    -0.20500
C509        C  0.19338981  0.01638114  0.14414072    -0.08600
C510        C  0.22182166  0.03928567  0.12777255     0.30300
F511        F  0.25144603  0.06852136  0.13723679    -0.19100
H512        H  0.24025015  0.05211316  0.08864370     0.18700
H513        H  0.14152531  0.96731383  0.14579680     0.18700
F514        F  0.13119777  0.95046022  0.09737033    -0.19100
C515        C  0.02701579  0.89884962  0.46950857    -0.20500
C516        C  0.04649197  0.90239344  0.49206011    -0.08600
C517        C  0.02818669  0.89509121  0.01629612     0.30300
C518        C  0.99049340  0.87510804  0.01643609    -0.20500
C519        C  0.97110545  0.86787724  0.99332075    -0.08600
C520        C  0.98961486  0.87933949  0.46950834     0.30300
F521        F  0.97203203  0.87794608  0.44747425    -0.19100
H522        H  0.04077549  0.91260914  0.45198739     0.18700
H523        H  0.97641858  0.86711826  0.03471320     0.18700
F524        F  0.04599365  0.90451157  0.03908686    -0.19100
C525        C  0.09348294  0.07592456  0.97487288    -0.20500
C526        C  0.12290586  0.08767479  0.99161859    -0.08600
C527        C  0.12791397  0.11259700  0.51286898     0.30300
C528        C  0.10747320  0.12968083  0.51279809    -0.20500
C529        C  0.08496529  0.12554394  0.49188934    -0.08600
C530        C  0.07216750  0.09161336  0.97485895     0.30300
F531        F  0.04372589  0.07801296  0.95852114    -0.19100
H532        H  0.08609966  0.05364564  0.96196060     0.18700
H533        H  0.10797711  0.14472868  0.52959188     0.18700
F534        F  0.14779391  0.11573749  0.53399120    -0.19100
C535        C  0.67933181  0.78022468  0.47860270    -0.20500
C536        C  0.70786059  0.78262722  0.46404165    -0.08600
C537        C  0.70266894  0.77471429  0.43743884     0.30300
C538        C  0.66878517  0.76167263  0.42628241    -0.20500
C539        C  0.63957608  0.75616589  0.44141689    -0.08600
C540        C  0.64530053  0.76666031  0.46746843     0.30300
F541        F  0.61723106  0.76108848  0.48261569    -0.19100
H542        H  0.68274060  0.78830098  0.00060572     0.18700
H543        H  0.66475526  0.75314785  0.40634755     0.18700
F544        F  0.73000246  0.77806066  0.42240582    -0.19100
C545        C  0.51380110  0.64211342  0.31082033    -0.20500
C546        C  0.50884044  0.66794982  0.32344157    -0.08600
C547        C  0.49799514  0.68836606  0.30931244     0.30300
C548        C  0.49214393  0.68285270  0.28281334    -0.20500
C549        C  0.49731827  0.65709955  0.26997602    -0.08600
C550        C  0.50847453  0.63687540  0.28430910     0.30300
F551        F  0.51375742  0.61170971  0.27290298    -0.19100
H552        H  0.52148307  0.62563788  0.32166415     0.18700
H553        H  0.48373368  0.69898448  0.27231939     0.18700
F554        F  0.49144456  0.71233950  0.32129516    -0.19100
C555        C  0.54090390  0.67749727  0.06304615    -0.20500
C556        C  0.51564759  0.68429188  0.07481648    -0.08600
C557        C  0.48912428  0.68498754  0.05969802     0.30300
C558        C  0.48733286  0.67816661  0.03335809    -0.20500
C559        C  0.51163068  0.66994685  0.02146525    -0.08600
C560        C  0.53894996  0.67026309  0.03656005     0.30300
F561        F  0.56342668  0.66317704  0.02590676    -0.19100
H562        H  0.56096973  0.67592339  0.07461289     0.18700
H563        H  0.46624817  0.67864919  0.02235099     0.18700
F564        F  0.46415142  0.69114629  0.07065410    -0.19100
C565        C  0.68672271  0.78998715  0.21586933    -0.20500
C566        C  0.70048721  0.76872652  0.22512104    -0.08600
C567        C  0.67897472  0.73130240  0.22314459     0.30300
C568        C  0.64511032  0.71560204  0.21176673    -0.20500
C569        C  0.63139335  0.73649864  0.20175453    -0.08600
C570        C  0.65251433  0.77407480  0.20413761     0.30300
F571        F  0.64013841  0.79535090  0.19535002    -0.19100
H572        H  0.70294247  0.81889932  0.21689222     0.18700
H573        H  0.62969079  0.68665253  0.21055349     0.18700
F574        F  0.69085308  0.70965055  0.23211276    -0.19100
C575        C  0.31783031  0.53722541  0.39901527    -0.20500
C576        C  0.29867339  0.52980794  0.42224791    -0.08600
C577        C  0.31734946  0.53838196  0.44573841     0.30300
C578        C  0.35485607  0.55693246  0.44581667    -0.20500
C579        C  0.37407948  0.56625901  0.42253351    -0.08600
C580        C  0.35532757  0.55487937  0.39912067     0.30300
F581        F  0.37317902  0.56363941  0.37627962    -0.19100
H582        H  0.30383407  0.53065307  0.38081173     0.18700
H583        H  0.36888634  0.56544856  0.46397236     0.18700
F584        F  0.29957304  0.53174314  0.46852871    -0.19100
C585        C  0.12872049  0.35052024  0.46994465    -0.20500
C586        C  0.11944000  0.35806847  0.44559342    -0.08600
C587        C  0.09087899  0.32998226  0.43208694     0.30300
C588        C  0.07086044  0.29621094  0.44331723    -0.20500
C589        C  0.07851581  0.28913946  0.46828140    -0.08600
C590        C  0.10855697  0.31632971  0.48118993     0.30300
F591        F  0.11723609  0.31057124  0.50511501    -0.19100
H592        H  0.15064410  0.37150967  0.48084190     0.18700
H593        H  0.04848586  0.27558893  0.43250445     0.18700
F594        F  0.08120445  0.33526239  0.40834490    -0.19100
C595        C  0.18203487  0.51922368  0.28279644    -0.20500
C596        C  0.15051558  0.49286154  0.27070846    -0.08600
C597        C  0.12543587  0.46305207  0.28514112     0.30300
C598        C  0.13203177  0.45993501  0.31113433    -0.20500
C599        C  0.16353877  0.48649901  0.32311311    -0.08600
C600        C  0.18855681  0.51617679  0.30862614     0.30300
F601        F  0.21951292  0.54226092  0.31934815    -0.19100
H602        H  0.20206512  0.54230087  0.27213706     0.18700
H603        H  0.11207481  0.43712796  0.32205410     0.18700
F604        F  0.09510643  0.43654621  0.27407798    -0.19100
C605        C  0.16470215  0.46962357  0.05928589    -0.20500
C606        C  0.15131401  0.48803939  0.07315789    -0.08600
C607        C  0.13732174  0.50657809  0.05939846     0.30300
C608        C  0.13809763  0.50755956  0.03244834    -0.20500
C609        C  0.15290162  0.49034595  0.01867101    -0.08600
C610        C  0.16555764  0.47068439  0.03242512     0.30300
F611        F  0.17881788  0.45226196  0.01996932    -0.19100
H612        H  0.17520265  0.45486495  0.06922969     0.18700
H613        H  0.12789974  0.52251354  0.02239767     0.18700
F614        F  0.12296990  0.52399280  0.07186982    -0.19100
C615        C  0.30439224  0.53596560  0.14979540    -0.20500
C616        C  0.28550996  0.53530803  0.17204501    -0.08600
C617        C  0.30511955  0.55378264  0.19409733     0.30300
C618        C  0.34246762  0.57440968  0.19332103    -0.20500
C619        C  0.36145815  0.57715322  0.17067130    -0.08600
C620        C  0.34211688  0.55672589  0.14903343     0.30300
F621        F  0.35932307  0.55822565  0.12674593    -0.19100
H622        H  0.28992427  0.52203210  0.13258543     0.18700
H623        H  0.35648911  0.58906771  0.21044896     0.18700
F624        F  0.28811037  0.55283895  0.21637551    -0.19100
C625        C  0.08759398  0.30075053  0.19325058    -0.20500
C626        C  0.08179708  0.29594671  0.22005592    -0.08600
C627        C  0.09542257  0.32625133  0.23587638     0.30300
C628        C  0.11171320  0.36051299  0.22481250    -0.20500
C629        C  0.11552362  0.36524414  0.19787213    -0.08600
C630        C  0.10481672  0.33512700  0.18222801     0.30300
F631        F  0.10801797  0.33862465  0.15623332    -0.19100
H632        H  0.07719696  0.27764837  0.18070413     0.18700
H633        H  0.11979791  0.38341168  0.23726577     0.18700
F634        F  0.09001395  0.32262823  0.26173302    -0.19100
C635        C  0.23728923  0.87110259  0.46962997    -0.20500
C636        C  0.24490054  0.87367685  0.44302818    -0.08600
C637        C  0.23477476  0.89358467  0.42749225     0.30300
C638        C  0.21984727  0.91263290  0.43869163    -0.20500
C639        C  0.21415352  0.91178719  0.46553055    -0.08600
C640        C  0.22156457  0.88950450  0.48077747     0.30300
F641        F  0.21672400  0.88808026  0.50667772    -0.19100
H642        H  0.24549923  0.85641248  0.48205013     0.18700
H643        H  0.21424315  0.92950691  0.42645794     0.18700
F644        F  0.24246820  0.89741690  0.40192253    -0.19100
C645        C  0.22094530  0.64584169  0.39749008    -0.20500
C646        C  0.20486310  0.62630654  0.42018305    -0.08600
C647        C  0.20596636  0.64532410  0.44249087     0.30300
C648        C  0.22481469  0.68303969  0.44232780    -0.20500
C649        C  0.24171113  0.70237565  0.41974992    -0.08600
C650        C  0.23884844  0.68334741  0.39717363     0.30300
F651        F  0.25581140  0.70109762  0.37529303    -0.19100
H652        H  0.22058064  0.63199700  0.38002328     0.18700
H653        H  0.22715682  0.69723143  0.46005755     0.18700
F654        F  0.19103307  0.62767690  0.46483486    -0.19100
C655        C  0.43151904  0.77662448  0.44519640    -0.20500
C656        C  0.43312569  0.79676465  0.42350810    -0.08600
C657        C  0.45584508  0.79981922  0.40286810     0.30300
C658        C  0.47404436  0.78053773  0.40325357    -0.20500
C659        C  0.46985871  0.75806333  0.42416629    -0.08600
C660        C  0.44957049  0.75757275  0.44561230     0.30300
F661        F  0.44615628  0.73771925  0.46683475    -0.19100
H662        H  0.41502612  0.77442125  0.46164634     0.18700
H663        H  0.48977456  0.78166243  0.38662126     0.18700
F664        F  0.45869024  0.81945601  0.38166780    -0.19100
C665        C  0.37060126  0.85169813  0.28157873    -0.20500
C666        C  0.33946112  0.84150356  0.26729917    -0.08600
C667        C  0.30646041  0.82900084  0.28042251     0.30300
C668        C  0.30489034  0.82664072  0.30725758    -0.20500
C669        C  0.33596930  0.83640698  0.32160379    -0.08600
C670        C  0.36901635  0.84902271  0.30839567     0.30300
F671        F  0.40008514  0.85906503  0.32124123    -0.19100
H672        H  0.39615896  0.86113452  0.27194769     0.18700
H673        H  0.27925417  0.81712181  0.31678766     0.18700
F674        F  0.27562552  0.81945838  0.26739147    -0.19100
C675        C  0.33742009  0.87069549  0.03004339    -0.20500
C676        C  0.34418902  0.84631641  0.01699569    -0.08600
C677        C  0.34525083  0.81907335  0.03098654     0.30300
C678        C  0.33885597  0.81585657  0.05737082    -0.20500
C679        C  0.33132251  0.83967051  0.07047886    -0.08600
C680        C  0.33093675  0.86743923  0.05658708     0.30300
F681        F  0.32485905  0.89172431  0.06858191    -0.19100
H682        H  0.33617775  0.89169864  0.01958478     0.18700
H683        H  0.33993392  0.79458636  0.06756625     0.18700
F684        F  0.35256308  0.79548472  0.01920152    -0.19100
C685        C  0.24169460  0.93877556  0.19112241    -0.20500
C686        C  0.22526339  0.92989762  0.21558198    -0.08600
C687        C  0.22042814  0.89883567  0.22786796     0.30300
C688        C  0.23369090  0.87841565  0.21640143    -0.20500
C689        C  0.25177843  0.88847451  0.19245136    -0.08600
C690        C  0.25471680  0.91847423  0.17965805     0.30300
F691        F  0.27108908  0.92900724  0.15633316    -0.19100
H692        H  0.24502457  0.96204244  0.18082655     0.18700
H693        H  0.23104898  0.85551958  0.22680707     0.18700
F694        F  0.20459105  0.88919894  0.25140466    -0.19100
C695        C  0.20586435  0.64988997  0.19338836    -0.20500
C696        C  0.19776992  0.62999689  0.17056271    -0.08600
C697        C  0.20907900  0.64803177  0.14681724     0.30300
C698        C  0.23005034  0.68534133  0.14616019    -0.20500
C699        C  0.23922887  0.70518969  0.16905562    -0.08600
C700        C  0.22602302  0.68725600  0.19267668     0.30300
F701        F  0.23487739  0.70562519  0.21521477    -0.19100
H702        H  0.19756013  0.63640993  0.21185082     0.18700
H703        H  0.24005512  0.69870443  0.12780505     0.18700
F704        F  0.20234340  0.62953899  0.12443302    -0.19100
C705        C  0.45118501  0.80334163  0.19053630    -0.20500
C706        C  0.43276901  0.80242817  0.16797081    -0.08600
C707        C  0.43707388  0.78614686  0.14578436     0.30300
C708        C  0.45743289  0.76926797  0.14671870    -0.20500
C709        C  0.47335642  0.76773486  0.16979467    -0.08600
C710        C  0.47086329  0.78563649  0.19158496     0.30300
F711        F  0.48593690  0.78440571  0.21420517    -0.19100
H712        H  0.44841407  0.81570233  0.20783721     0.18700
H713        H  0.45859000  0.75513887  0.12986562     0.18700
F714        F  0.42039115  0.78523704  0.12340674    -0.19100
C715        C  0.60224938  0.56324967  0.39700612    -0.20500
C716        C  0.59309108  0.54959130  0.37174788    -0.08600
C717        C  0.56232955  0.54686968  0.36042350     0.30300
C718        C  0.54282828  0.55997883  0.37345604    -0.20500
C719        C  0.55349101  0.57591801  0.39806904    -0.08600
C720        C  0.58280249  0.57621240  0.41004812     0.30300
F721        F  0.59363380  0.59020422  0.43395635    -0.19100
H722        H  0.62526268  0.56472060  0.40658695     0.18700
H723        H  0.52033121  0.55921140  0.36361728     0.18700
F724        F  0.55236808  0.53363036  0.33625442    -0.19100
C725        C  0.77574040  0.63795791  0.28252278    -0.20500
C726        C  0.77120759  0.63723249  0.30946015    -0.08600
C727        C  0.78468913  0.66971431  0.32278815     0.30300
C728        C  0.80185543  0.70213599  0.30922388    -0.20500
C729        C  0.80484951  0.70255357  0.28218046    -0.08600
C730        C  0.79189905  0.67017676  0.26895971     0.30300
F731        F  0.79429260  0.66960527  0.24290690    -0.19100
H732        H  0.76524259  0.61333059  0.27165071     0.18700
H733        H  0.81127471  0.72689555  0.31975764     0.18700
F734        F  0.78070459  0.67014954  0.34870187    -0.19100
C735        C  0.67561298  0.54043042  0.45013712    -0.20500
C736        C  0.67898796  0.51356311  0.43750647    -0.08600
C737        C  0.67024483  0.48195317  0.45102877     0.30300
C738        C  0.65828990  0.47737451  0.47641479    -0.20500
C739        C  0.65469408  0.50401728  0.48909919    -0.08600
C740        C  0.66346592  0.53572812  0.47571148     0.30300
F741        F  0.66134493  0.56256165  0.48747995    -0.19100
H742        H  0.68156081  0.56471623  0.44003501     0.18700
H743        H  0.65222271  0.45290362  0.48631314     0.18700
F744        F  0.67327972  0.45529180  0.43978845    -0.19100
C745        C  0.69889970  0.52348576  0.19818990    -0.20500
C746        C  0.66707352  0.51420457  0.18508424    -0.08600
C747        C  0.63575583  0.50497485  0.19955683     0.30300
C748        C  0.63614004  0.50376121  0.22652718    -0.20500
C749        C  0.66758363  0.51139454  0.23969483    -0.08600
C750        C  0.69927551  0.52196225  0.22511454     0.30300
F751        F  0.73083117  0.53061720  0.23672725    -0.19100
H752        H  0.72326875  0.53067179  0.18754777     0.18700
H753        H  0.61159720  0.49614504  0.23706114     0.18700
F754        F  0.60459681  0.49700190  0.18760912    -0.19100
C755        C  0.55428792  0.53329602  0.14155927    -0.20500
C756        C  0.55812566  0.53457673  0.11455799    -0.08600
C757        C  0.54340841  0.55126908  0.09994217     0.30300
C758        C  0.52661557  0.56766827  0.11224946    -0.20500
C759        C  0.52497810  0.56852850  0.13934930    -0.08600
C760        C  0.53830858  0.55043579  0.15390670     0.30300
F761        F  0.53687373  0.55014883  0.18003578    -0.19100
H762        H  0.56551520  0.52065974  0.15331802     0.18700
H763        H  0.51658654  0.58142466  0.10050694     0.18700
F764        F  0.54596020  0.55245378  0.07386218    -0.19100
C765        C  0.79755185  0.68428972  0.04871536    -0.20500
C766        C  0.78640633  0.68950536  0.02428012    -0.08600
C767        C  0.75387975  0.66181379  0.01423606     0.30300
C768        C  0.73241566  0.63103999  0.02877049    -0.20500
C769        C  0.74259636  0.62648027  0.05362684    -0.08600
C770        C  0.77601332  0.65301782  0.06320363     0.30300
F771        F  0.78701857  0.64963652  0.08696474    -0.19100
H772        H  0.82232437  0.70508810  0.05715188     0.18700
H773        H  0.70728028  0.61065074  0.02049597     0.18700
F774        F  0.74190963  0.66480034  0.99071877    -0.19100
C775        C  0.54567286  0.32162854  0.31934675    -0.20500
C776        C  0.54636714  0.30315930  0.34152935    -0.08600
C777        C  0.56298556  0.32288145  0.36388918     0.30300
C778        C  0.58088603  0.36013453  0.36338277    -0.20500
C779        C  0.58269321  0.37873780  0.34071160    -0.08600
C780        C  0.56372017  0.35919609  0.31888454     0.30300
F781        F  0.56491740  0.37624513  0.29663219    -0.19100
H782        H  0.53290113  0.30710783  0.30186835     0.18700
H783        H  0.59472306  0.37461072  0.38063766     0.18700
F784        F  0.56318302  0.30634239  0.38606518    -0.19100
C785        C  0.42002066  0.99737953  0.40556127    -0.20500
C786        C  0.42501686  0.97081403  0.39420884    -0.08600
C787        C  0.44578537  0.97953023  0.37137537     0.30300
C788        C  0.45975944  0.01345919  0.35985579    -0.20500
C789        C  0.45315154  0.03930666  0.37064981    -0.08600
C790        C  0.43378286  0.03103249  0.39409320     0.30300
F791        F  0.42781277  0.05540229  0.40610398    -0.19100
H792        H  0.40450103  0.99187153  0.42312939     0.18700
H793        H  0.47482645  0.01909569  0.34206364     0.18700
F794        F  0.45161514  0.95497513  0.35957240    -0.19100
C795        C  0.34311838  0.11457087  0.26348313    -0.20500
C796        C  0.31084598  0.10244489  0.27705046    -0.08600
C797        C  0.31217762  0.10586061  0.30418510     0.30300
C798        C  0.34500166  0.12047830  0.31726544    -0.20500
C799        C  0.37720724  0.13260945  0.30365658    -0.08600
C800        C  0.37596776  0.12973720  0.27652980     0.30300
F801        F  0.40636272  0.13998872  0.26261983    -0.19100
H802        H  0.34289704  0.11184506  0.24273399     0.18700
H803        H  0.34520996  0.12211723  0.33809215     0.18700
F804        F  0.28161267  0.09352031  0.31830348    -0.19100
C805        C  0.46326238  0.15838545  0.47970363    -0.20500
C806        C  0.49152990  0.15685471  0.49196278    -0.08600
C807        C  0.51939479  0.15851347  0.47700364     0.30300
C808        C  0.51946136  0.16283888  0.45028250    -0.20500
C809        C  0.49141942  0.16488168  0.43798141    -0.08600
C810        C  0.46288407  0.16190161  0.45294608     0.30300
F811        F  0.43532945  0.16367195  0.44189824    -0.19100
H812        H  0.44155087  0.15725811  0.49098331     0.18700
H813        H  0.54158398  0.16462025  0.43916340     0.18700
F814        F  0.54738496  0.15780134  0.48829908    -0.19100
C815        C  0.47356471  0.12639422  0.20256980    -0.20500
C816        C  0.48913658  0.15869827  0.18862808    -0.08600
C817        C  0.51163703  0.19096301  0.20147182     0.30300
C818        C  0.51827877  0.19097020  0.22770005    -0.20500
C819        C  0.50293905  0.15883937  0.24186518    -0.08600
C820        C  0.48056780  0.12635402  0.22900500     0.30300
F821        F  0.46482097  0.09479400  0.24200047    -0.19100
H822        H  0.45682673  0.10117130  0.19284631     0.18700
H823        H  0.53537535  0.21644345  0.23702046     0.18700
F824        F  0.52711160  0.22268100  0.18862687    -0.19100
C825        C  0.53485122  0.30824930  0.06598890    -0.20500
C826        C  0.53103412  0.29058860  0.08948855    -0.08600
C827        C  0.54102577  0.31039645  0.11246929     0.30300
C828        C  0.55644458  0.34754150  0.11172178    -0.20500
C829        C  0.56289412  0.36549986  0.08805299    -0.08600
C830        C  0.55105315  0.34548147  0.06517760     0.30300
F831        F  0.55626297  0.36196829  0.04199515    -0.19100
H832        H  0.52708727  0.29341420  0.04807225     0.18700
H833        H  0.56541469  0.36245111  0.12956493     0.18700
F834        F  0.53671516  0.29396872  0.13557054    -0.19100
C835        C  0.45038710  0.00067012  0.10155953    -0.20500
C836        C  0.46510812  0.03193151  0.11628638    -0.08600
C837        C  0.46652233  0.02938407  0.14333370     0.30300
C838        C  0.45040017  0.99586633  0.15552562    -0.20500
C839        C  0.43218160  0.96456004  0.14089444    -0.08600
C840        C  0.43379044  0.96718634  0.11373768     0.30300
F841        F  0.41667099  0.93724401  0.09901633    -0.19100
H842        H  0.44875789  0.00203301  0.08080676     0.18700
H843        H  0.44930189  0.99448996  0.17636639     0.18700
F844        F  0.48104822  0.05938936  0.15805694    -0.19100
C845        C  0.34778490  0.07779529  0.05165799    -0.20500
C846        C  0.36109820  0.11119002  0.06356844    -0.08600
C847        C  0.34519305  0.13181484  0.05777258     0.30300
C848        C  0.31646993  0.11908395  0.04038300    -0.20500
C849        C  0.30393542  0.08616580  0.02771435    -0.08600
C850        C  0.31983785  0.06551004  0.03372406     0.30300
F851        F  0.30798747  0.03303759  0.02266719    -0.19100
H852        H  0.36032014  0.06194727  0.05524703     0.18700
H853        H  0.30426040  0.13517279  0.03660290     0.18700
F854        F  0.35780367  0.16449603  0.06868469    -0.19100
C855        C  0.90936090  0.23690589  0.26230281    -0.20500
C856        C  0.90415029  0.20478717  0.27277387    -0.08600
C857        C  0.88422811  0.19208928  0.29595003     0.30300
C858        C  0.87234480  0.21264394  0.30908799    -0.20500
C859        C  0.88020812  0.24615753  0.29945485    -0.08600
C860        C  0.89768466  0.25729426  0.27530338     0.30300
F861        F  0.90415389  0.28838791  0.26415862    -0.19100
H862        H  0.92398230  0.24728643  0.24440379     0.18700
H863        H  0.85819503  0.20295678  0.32721997     0.18700
F864        F  0.87738534  0.16056211  0.30650497    -0.19100
C865        C  0.77838909  0.45791437  0.31368870    -0.20500
C866        C  0.76997652  0.46711450  0.33753833    -0.08600
C867        C  0.78155013  0.45866773  0.36035440     0.30300
C868        C  0.79908785  0.43908661  0.35928008    -0.20500
C869        C  0.80447938  0.42702064  0.33552878    -0.08600
C870        C  0.79516026  0.43763342  0.31263550     0.30300
F871        F  0.80096745  0.42723995  0.28932985    -0.19100
H872        H  0.76977906  0.46430036  0.29587903     0.18700
H873        H  0.80630612  0.43136636  0.37713582     0.18700
F874        F  0.77465149  0.46809015  0.38367113    -0.19100
C875        C  0.68756494  0.22658437  0.31260397    -0.20500
C876        C  0.70829797  0.23714996  0.33521083    -0.08600
C877        C  0.69079770  0.22752917  0.35919916     0.30300
C878        C  0.65318523  0.20946779  0.36044628    -0.20500
C879        C  0.63243183  0.19987882  0.33784010    -0.08600
C880        C  0.64992648  0.20765292  0.31384648     0.30300
F881        F  0.63077903  0.19964909  0.29166529    -0.19100
H882        H  0.70061143  0.23412010  0.29393760     0.18700
H883        H  0.64021472  0.20409464  0.37913129     0.18700
F884        F  0.71002598  0.23817487  0.38137864    -0.19100
C885        C  0.97559876  0.43514086  0.38863807    -0.20500
C886        C  0.97257085  0.42430889  0.36257954    -0.08600
C887        C  0.00401555  0.43161131  0.34938697     0.30300
C888        C  0.03687725  0.44691217  0.36239507    -0.20500
C889        C  0.03942335  0.45541939  0.38882764    -0.08600
C890        C  0.00865770  0.45055075  0.40165948     0.30300
F891        F  0.00988808  0.45807439  0.42713333    -0.19100
H892        H  0.95196339  0.42999444  0.39945251     0.18700
H893        H  0.06038370  0.45093544  0.35190533     0.18700
F894        F  0.00295361  0.42279909  0.32419184    -0.19100
C895        C  0.87109464  0.34287803  0.44394774    -0.20500
C896        C  0.83917223  0.31771727  0.43169913    -0.08600
C897        C  0.80760534  0.29901857  0.44627912     0.30300
C898        C  0.80795741  0.30606052  0.47265313    -0.20500
C899        C  0.83979111  0.33195732  0.48495595    -0.08600
C900        C  0.87162027  0.34978608  0.47031250     0.30300
F901        F  0.90299712  0.37484265  0.48114069    -0.19100
H902        H  0.89545189  0.35835007  0.43275968     0.18700
H903        H  0.78305916  0.29148294  0.48337720     0.18700
F904        F  0.77607018  0.27564135  0.43473868    -0.19100
C905        C  0.86166264  0.32627776  0.19221828    -0.20500
C906        C  0.83056857  0.32267746  0.18061863    -0.08600
C907        C  0.80580036  0.32643896  0.19588442     0.30300
C908        C  0.81182147  0.33336486  0.22218543    -0.20500
C909        C  0.84302325  0.33741937  0.23398040    -0.08600
C910        C  0.86806593  0.33387888  0.21866973     0.30300
F911        F  0.89838628  0.33728614  0.22922727    -0.19100
H912        H  0.88161185  0.32453990  0.18061246     0.18700
H913        H  0.79190992  0.33574285  0.23336968     0.18700
F914        F  0.77574147  0.32365655  0.18525536    -0.19100
C915        C  0.86552764  0.21611815  0.05838962    -0.20500
C916        C  0.87986621  0.25253448  0.05218126    -0.08600
C917        C  0.90533754  0.26698840  0.03190120     0.30300
C918        C  0.91624813  0.24598891  0.01872391    -0.20500
C919        C  0.90283484  0.20996541  0.02525924    -0.08600
C920        C  0.87701100  0.19508623  0.04527246     0.30300
F921        F  0.86305441  0.16036472  0.05239296    -0.19100
H922        H  0.84566361  0.20395858  0.07356832     0.18700
H923        H  0.92797992  0.25328262  0.49822916     0.18700
F924        F  0.92018208  0.30174712  0.02454171    -0.19100
C925        C  0.74776171  0.44443198  0.06009911    -0.20500
C926        C  0.74568113  0.46080747  0.08289752    -0.08600
C927        C  0.76407419  0.45945776  0.10480880     0.30300
C928        C  0.78262063  0.44052945  0.10410526    -0.20500
C929        C  0.78311915  0.42257095  0.08158659    -0.08600
C930        C  0.76626250  0.42568945  0.05933597     0.30300
F931        F  0.76682412  0.40992506  0.03688873    -0.19100
H932        H  0.73418289  0.44538494  0.04284952     0.18700
H933        H  0.79516169  0.43853783  0.12157537     0.18700
F934        F  0.76209227  0.47424533  0.12733735    -0.19100
C935        C  0.68096661  0.22750385  0.06094728    -0.20500
C936        C  0.70155658  0.23508371  0.08352313    -0.08600
C937        C  0.68387966  0.22170010  0.10718634     0.30300
C938        C  0.64624444  0.20332920  0.10833246    -0.20500
C939        C  0.62578929  0.19712560  0.08586128    -0.08600
C940        C  0.64341642  0.20836133  0.06201425     0.30300
F941        F  0.62444291  0.20347732  0.04004536    -0.19100
H942        H  0.69405054  0.23772512  0.04250867     0.18700
H943        H  0.63302332  0.19492621  0.12690459     0.18700
F944        F  0.70287272  0.22885748  0.12938438    -0.19100
C945        C  0.01876264  0.46659023  0.12140880    -0.20500
C946        C  0.02127064  0.45436648  0.14615040    -0.08600
C947        C  0.98994167  0.42634568  0.15745603     0.30300
C948        C  0.95727818  0.41084157  0.14410498    -0.20500
C949        C  0.95540673  0.42216448  0.11903527    -0.08600
C950        C  0.98633238  0.45035872  0.10783634     0.30300
F951        F  0.98519790  0.46217751  0.08383094    -0.19100
H952        H  0.04233127  0.48791992  0.11197358     0.18700
H953        H  0.93356092  0.38889835  0.15298196     0.18700
F954        F  0.99092301  0.41326974  0.18102041    -0.19100
Zn955      Zn  0.79639231  0.32913238  0.56094778     1.49700
Zn956      Zn  0.84116083  0.36719769  0.60939353     1.49400
Zn957      Zn  0.81853520  0.28637408  0.60028016     1.49100
Zn958      Zn  0.87619732  0.34780230  0.56328631     1.49500
O959        O  0.83301177  0.33227046  0.58336342    -1.83400
O960        O  0.78806622  0.37104213  0.56573801    -0.74000
O961        O  0.82414444  0.34274557  0.64307009    -0.73800
O962        O  0.76311403  0.25597418  0.59918662    -0.73300
O963        O  0.81686721  0.39609601  0.60202924    -0.74000
O964        O  0.75026006  0.28518491  0.56962871    -0.73600
O965        O  0.83381871  0.29710707  0.63849616    -0.74200
O966        O  0.88350033  0.30623208  0.55868261    -0.73600
O967        O  0.89414697  0.39884314  0.61511036    -0.74300
O968        O  0.84118386  0.26020479  0.58074483    -0.73700
O969        O  0.92008285  0.38742429  0.58231337    -0.74200
O970        O  0.86888392  0.35609117  0.52556522    -0.74100
O971        O  0.80916749  0.32502560  0.52452427    -0.73900
C972        C  0.79653108  0.39424316  0.58356847     0.77900
C973        C  0.83009809  0.31921533  0.65267530     0.78400
C974        C  0.74044485  0.25937417  0.58540153     0.77400
C975        C  0.86730903  0.27318013  0.56456756     0.77700
C976        C  0.92221448  0.40336261  0.60357038     0.78900
C977        C  0.83941639  0.33854572  0.51306629     0.77900
Zn978      Zn  0.80951018  0.33512808  0.81143439     1.49700
Zn979      Zn  0.88654168  0.34678299  0.81196881     1.49400
Zn980      Zn  0.85896890  0.37184725  0.85891462     1.49100
Zn981      Zn  0.82431856  0.28754240  0.85015322     1.49500
O982        O  0.84487216  0.33476386  0.83342010    -1.83400
O983        O  0.82044099  0.33132925  0.77506241    -0.74000
O984        O  0.93326116  0.38506970  0.82922010    -0.73800
O985        O  0.83840974  0.40333877  0.85206625    -0.73300
O986        O  0.87949672  0.35442333  0.77373968    -0.74000
O987        O  0.80728318  0.37970886  0.81623601    -0.73600
O988        O  0.91230621  0.40179365  0.86211766    -0.74200
O989        O  0.83445920  0.29476701  0.88923267    -0.73600
O990        O  0.88814808  0.30235098  0.80827334    -0.74300
O991        O  0.84395786  0.35024104  0.89344761    -0.73700
O992        O  0.84435865  0.25894444  0.83164756    -0.74200
O993        O  0.76921762  0.25969047  0.84618361    -0.74100
O994        O  0.76057336  0.29368952  0.81851186    -0.73900
C995        C  0.84914211  0.34117698  0.76234715     0.77900
C996        C  0.93854701  0.40353374  0.84970800     0.78400
C997        C  0.81872503  0.40332961  0.83385419     0.77400
C998        C  0.83882960  0.32109119  0.90314290     0.77700
C999        C  0.86951265  0.26964286  0.81483457     0.78900
C1000       C  0.74827420  0.26591966  0.83262546     0.77900
Zn1001     Zn  0.51133864  0.13639600  0.57157817     1.49700
Zn1002     Zn  0.52652481  0.19683922  0.61307017     1.49400
Zn1003     Zn  0.47347562  0.18370658  0.56767196     1.49100
Zn1004     Zn  0.44997160  0.12715276  0.61168924     1.49500
O1005       O  0.49069851  0.16083229  0.59088248    -1.83400
O1006       O  0.56556607  0.16336602  0.57617197    -0.74000
O1007       O  0.52961702  0.24437043  0.60794185    -0.73800
O1008       O  0.48494075  0.17826843  0.53173345    -0.73300
O1009       O  0.57547054  0.20268760  0.60719013    -0.74000
O1010       O  0.50175512  0.13734679  0.53278781    -0.73600
O1011       O  0.49290341  0.23534205  0.57524008    -0.74200
O1012       O  0.40231920  0.11283301  0.59312867    -0.73600
O1013       O  0.51301811  0.18299589  0.64943249    -0.74300
O1014       O  0.42039409  0.15911754  0.56657123    -0.73700
O1015       O  0.45446435  0.14264525  0.64928612    -0.74200
O1016       O  0.45379590  0.08398275  0.61575774    -0.74100
O1017       O  0.49286031  0.08588673  0.58681356    -0.73900
C1018       C  0.58685726  0.18812484  0.59142655     0.77900
C1019       C  0.51501641  0.25570170  0.59217796     0.78400
C1020       C  0.49305994  0.15737415  0.52033556     0.77400
C1021       C  0.39583690  0.12943552  0.57549355     0.77700
C1022       C  0.48377064  0.16277975  0.66128161     0.78900
C1023       C  0.47117347  0.07065975  0.60563998     0.77900
Zn1024     Zn  0.53644208  0.20020454  0.86268323     1.49700
Zn1025     Zn  0.49365880  0.19582845  0.81361806     1.49400
Zn1026     Zn  0.51597361  0.13874140  0.82177246     1.49100
Zn1027     Zn  0.45630985  0.14052201  0.85799139     1.49500
O1028       O  0.50065832  0.16843938  0.83931365    -1.83400
O1029       O  0.54274938  0.24946546  0.85941862    -0.74000
O1030       O  0.51737175  0.19401382  0.78160755    -0.73800
O1031       O  0.57119410  0.16401069  0.82378882    -0.73300
O1032       O  0.51282212  0.24721318  0.82408815    -0.74000
O1033       O  0.58393261  0.20415271  0.85488537    -0.73600
O1034       O  0.50156489  0.13672294  0.78362137    -0.74200
O1035       O  0.45051919  0.09234335  0.86324746    -0.73600
O1036       O  0.44162235  0.17177266  0.80411590    -0.74300
O1037       O  0.49254082  0.08930659  0.84033201    -0.73700
O1038       O  0.41309054  0.13523858  0.83706078    -0.74200
O1039       O  0.46137893  0.15682813  0.89547122    -0.74100
O1040       O  0.52075034  0.18123111  0.89822476    -0.73900
C1041       C  0.53266375  0.26459836  0.84307766     0.77900
C1042       C  0.50754250  0.16430085  0.77051017     0.78400
C1043       C  0.59379608  0.18911101  0.83838091     0.77400
C1044       C  0.46681592  0.07590708  0.85683107     0.77700
C1045       C  0.41275716  0.14832801  0.81499315     0.78900
C1046       C  0.48982113  0.16653338  0.90877740     0.77900
Zn1047     Zn  0.64312798  0.53294818  0.56618274     1.49700
Zn1048     Zn  0.65098204  0.46550716  0.56593555     1.49400
Zn1049     Zn  0.70136769  0.52868190  0.60448023     1.49100
Zn1050     Zn  0.61595612  0.47989276  0.61284458     1.49500
O1051       O  0.65373596  0.50246858  0.58768962    -1.83400
O1052       O  0.63478918  0.51782829  0.52845231    -0.74000
O1053       O  0.69165335  0.45741068  0.57271351    -0.73800
O1054       O  0.73137217  0.57828633  0.58570490    -0.73300
O1055       O  0.65544709  0.48021326  0.52960001    -0.74000
O1056       O  0.68863340  0.57857485  0.56183327    -0.73600
O1057       O  0.72781897  0.49997454  0.59999433    -0.74200
O1058       O  0.63620226  0.48743196  0.64746450    -0.73600
O1059       O  0.60545267  0.41869554  0.57112424    -0.74300
O1060       O  0.69314100  0.53144548  0.64389633    -0.73700
O1061       O  0.58384869  0.42728752  0.60756529    -0.74200
O1062       O  0.58756456  0.50416288  0.61527716    -0.74100
O1063       O  0.60593420  0.54304920  0.58290010    -0.73900
C1064       C  0.64718381  0.50019939  0.51707976     0.77900
C1065       C  0.72006193  0.47244505  0.58625475     0.78400
C1066       C  0.72130660  0.59284180  0.56861891     0.77400
C1067       C  0.66540991  0.51088327  0.65766373     0.77700
C1068       C  0.58284580  0.40699167  0.58953718     0.78900
C1069       C  0.58715324  0.52950049  0.60328035     0.77900
Zn1070     Zn  0.69434666  0.55513194  0.85868802     1.49700
Zn1071     Zn  0.68012684  0.47792678  0.86114395     1.49400
Zn1072     Zn  0.63135963  0.49347586  0.82284761     1.49100
Zn1073     Zn  0.71311733  0.52044109  0.81225724     1.49500
O1074       O  0.67889182  0.51177302  0.83869101    -1.83400
O1075       O  0.70234609  0.54955572  0.89686398    -0.74000
O1076       O  0.63717085  0.43101036  0.85518885    -0.73800
O1077       O  0.60590770  0.51705182  0.84159029    -0.73300
O1078       O  0.67652513  0.49043310  0.89677810    -0.74000
O1079       O  0.65198904  0.56077727  0.86284641    -0.73600
O1080       O  0.60122256  0.43867689  0.82865324    -0.74200
O1081       O  0.69021226  0.50397816  0.77867157    -0.73600
O1082       O  0.72369005  0.47291591  0.85655610    -0.74300
O1083       O  0.63918235  0.50437489  0.78342572    -0.73700
O1084       O  0.74377390  0.49921659  0.81865439    -0.74200
O1085       O  0.74336611  0.57211504  0.80661180    -0.74100
O1086       O  0.73366956  0.59898360  0.83957882    -0.73900
C1087       C  0.68718737  0.51957932  0.90877088     0.77900
C1088       C  0.60802531  0.41845521  0.84261751     0.78400
C1089       C  0.61875126  0.54351271  0.85728299     0.77400
C1090       C  0.66404986  0.50555845  0.76908012     0.77700
C1091       C  0.74516987  0.48138082  0.83755545     0.78900
C1092       C  0.74854817  0.60022832  0.81796578     0.77900
Zn1093     Zn  0.32742102  0.87456715  0.64674729     1.49700
Zn1094     Zn  0.33709068  0.80787830  0.64744881     1.49400
Zn1095     Zn  0.38101080  0.87027266  0.68753777     1.49100
Zn1096     Zn  0.29363161  0.82006922  0.69106015     1.49500
O1097       O  0.33535771  0.84328616  0.66866791    -1.83400
O1098       O  0.31593661  0.85707154  0.61042474    -0.74000
O1099       O  0.38149991  0.80533784  0.65359604    -0.73800
O1100       O  0.41173021  0.92115134  0.67183001    -0.73300
O1101       O  0.33757824  0.82014339  0.61091716    -0.74000
O1102       O  0.37374818  0.91902975  0.64200776    -0.73600
O1103       O  0.41101266  0.84584304  0.68397574    -0.74200
O1104       O  0.31070632  0.82669295  0.72673668    -0.73600
O1105       O  0.29414190  0.75921478  0.65340832    -0.74300
O1106       O  0.36880475  0.86901778  0.72582453    -0.73700
O1107       O  0.26298257  0.76718303  0.68417627    -0.74200
O1108       O  0.26431035  0.84439028  0.69160466    -0.74100
O1109       O  0.29232268  0.88722816  0.66253367    -0.73900
C1110       C  0.32712580  0.83868826  0.59879724     0.77900
C1111       C  0.40796843  0.82119500  0.66889208     0.78400
C1112       C  0.40457216  0.93461498  0.65236909     0.77400
C1113       C  0.33972650  0.84836183  0.73813854     0.77700
C1114       C  0.26727865  0.74694537  0.66860228     0.78900
C1115       C  0.26908616  0.87265472  0.68048466     0.77900
Zn1116     Zn  0.34580480  0.88093848  0.93908502     1.49700
Zn1117     Zn  0.37922688  0.85650932  0.89601676     1.49400
Zn1118     Zn  0.33577213  0.80335328  0.94093887     1.49100
Zn1119     Zn  0.29182819  0.81940463  0.89962176     1.49500
O1120       O  0.33760472  0.83979364  0.91863566    -1.83400
O1121       O  0.38307863  0.92831395  0.92241221    -0.74000
O1122       O  0.41043424  0.83478599  0.90382631    -0.73800
O1123       O  0.33596224  0.81719253  0.97724351    -0.73300
O1124       O  0.40872970  0.91055328  0.89363486    -0.74000
O1125       O  0.35581050  0.87566240  0.97628889    -0.73600
O1126       O  0.37875354  0.79783525  0.93555122    -0.74200
O1127       O  0.26321834  0.76392757  0.90313108    -0.73600
O1128       O  0.36138306  0.84379202  0.86060670    -0.74300
O1129       O  0.29201580  0.75480065  0.93500315    -0.73700
O1130       O  0.30452514  0.83126301  0.86131515    -0.74200
O1131       O  0.26106685  0.84027631  0.91436111    -0.74100
O1132       O  0.29986183  0.88102190  0.94178834    -0.73900
C1133       C  0.40561976  0.93539140  0.90414227     0.77900
C1134       C  0.40571716  0.81104909  0.92039381     0.78400
C1135       C  0.34601928  0.84670637  0.98869555     0.77400
C1136       C  0.26658678  0.74286578  0.91868325     0.77700
C1137       C  0.33312921  0.83820862  0.84898566     0.78900
C1138       C  0.26884893  0.86420164  0.93167341     0.77900
Zn1139     Zn  0.18828184  0.53167528  0.69392550     1.49700
Zn1140     Zn  0.17055071  0.46759377  0.65489594     1.49400
Zn1141     Zn  0.10940078  0.46626049  0.69341803     1.49100
Zn1142     Zn  0.13974687  0.52115720  0.64751756     1.49500
O1143       O  0.15201221  0.49584974  0.67225328    -1.83400
O1144       O  0.23509142  0.53488581  0.68810326    -0.74000
O1145       O  0.14497542  0.41603161  0.67075291    -0.73800
O1146       O  0.11711911  0.48131273  0.73132662    -0.73300
O1147       O  0.22596244  0.49198600  0.66046626    -0.74000
O1148       O  0.17613030  0.51851933  0.73013733    -0.73600
O1149       O  0.10462806  0.41829286  0.69631075    -0.74200
O1150       O  0.08683042  0.49874198  0.64413000    -0.73600
O1151       O  0.16127775  0.46769099  0.61570354    -0.74300
O1152       O  0.06314624  0.45939253  0.67615686    -0.73700
O1153       O  0.15252969  0.51399930  0.61289503    -0.74200
O1154       O  0.16376345  0.57417902  0.65327063    -0.74100
O1155       O  0.19593021  0.58083692  0.68829460    -0.73900
C1156       C  0.24695663  0.51852467  0.67476075     0.77900
C1157       C  0.11973152  0.40173671  0.68759828     0.78400
C1158       C  0.14736064  0.49939374  0.74272229     0.77400
C1159       C  0.05968147  0.47374887  0.65562852     0.77700
C1160       C  0.15628580  0.48972935  0.60233962     0.78900
C1161       C  0.18559346  0.59385571  0.67061144     0.77900
Zn1162     Zn  0.20387214  0.52735832  0.89942080     1.49700
Zn1163     Zn  0.13906788  0.51142451  0.93709568     1.49400
Zn1164     Zn  0.13728233  0.45020058  0.89946413     1.49100
Zn1165     Zn  0.18794254  0.47440240  0.94597706     1.49500
O1166       O  0.16673679  0.49139724  0.92097228    -1.83400
O1167       O  0.21040506  0.57632333  0.90549826    -0.74000
O1168       O  0.08903488  0.48962168  0.91862517    -0.73800
O1169       O  0.15342726  0.45688995  0.86241170    -0.73300
O1170       O  0.16606628  0.56678979  0.93217542    -0.74000
O1171       O  0.18949807  0.51591586  0.86278324    -0.73600
O1172       O  0.09168340  0.44856709  0.89462480    -0.74200
O1173       O  0.16289886  0.42042979  0.94871113    -0.73600
O1174       O  0.13633878  0.50060525  0.97636094    -0.74300
O1175       O  0.12590520  0.40270277  0.91548449    -0.73700
O1176       O  0.18001008  0.48764446  0.98030633    -0.74200
O1177       O  0.24086016  0.49512986  0.94021626    -0.74100
O1178       O  0.25086418  0.52928151  0.90556299    -0.73900
C1179       C  0.19362510  0.58807688  0.91866654     0.77900
C1180       C  0.07569186  0.46501338  0.90141806     0.78400
C1181       C  0.17013743  0.48685421  0.85067545     0.77400
C1182       C  0.13778170  0.39545783  0.93570508     0.77700
C1183       C  0.15647223  0.49334760  0.99024839     0.78900
C1184       C  0.26183426  0.51625267  0.92291718     0.77900
Zn1185     Zn  0.47317908  0.63355653  0.64663367     1.49700
Zn1186     Zn  0.52783051  0.65520529  0.69238812     1.49400
Zn1187     Zn  0.53103275  0.71505430  0.65426759     1.49100
Zn1188     Zn  0.46528940  0.67191015  0.69412794     1.49500
O1189       O  0.49976759  0.66966931  0.67206186    -1.83400
O1190       O  0.49718228  0.60527809  0.64008523    -0.74000
O1191       O  0.57736262  0.69733557  0.69694841    -0.73800
O1192       O  0.53170734  0.70383864  0.61565375    -0.73300
O1193       O  0.53291782  0.61627827  0.67385647    -0.74000
O1194       O  0.47650621  0.65643301  0.61306999    -0.73600
O1195       O  0.58225507  0.74003114  0.67044483    -0.74200
O1196       O  0.46445943  0.71678795  0.68649554    -0.73600
O1197       O  0.51021553  0.64466906  0.72920875    -0.74300
O1198       O  0.50874475  0.74719310  0.65817954    -0.73700
O1199       O  0.48095609  0.67464608  0.73061967    -0.74200
O1200       O  0.41502893  0.62820883  0.68957562    -0.74100
O1201       O  0.42082388  0.60062773  0.65555137    -0.73900
C1202       C  0.52033018  0.60102380  0.65220137     0.77900
C1203       C  0.59542048  0.72875096  0.68766262     0.78400
C1204       C  0.50516037  0.68051208  0.60236435     0.77400
C1205       C  0.48267276  0.74393222  0.67204471     0.77700
C1206       C  0.49700387  0.66058960  0.74189345     0.78900
C1207       C  0.40151422  0.60255837  0.67331658     0.77900
Zn1208     Zn  0.54135485  0.65737081  0.94396267     1.49700
Zn1209     Zn  0.48679907  0.62584365  0.89838406     1.49400
Zn1210     Zn  0.47306311  0.66449618  0.94387490     1.49100
Zn1211     Zn  0.53507950  0.71208808  0.90351648     1.49500
O1212       O  0.50963419  0.66566741  0.92209471    -1.83400
O1213       O  0.55129786  0.61955502  0.92855707    -0.74000
O1214       O  0.43458798  0.59254742  0.90611305    -0.84600
O1215       O  0.48813654  0.67031101  0.98045500    -0.73300
O1216       O  0.51253986  0.59856646  0.89624712    -0.74000
O1217       O  0.52771712  0.65206188  0.98207422    -0.73600
O1218       O  0.42584412  0.61864362  0.93991582    -0.74200
O1219       O  0.50999528  0.74113047  0.90940486    -0.73600
O1220       O  0.49160149  0.64414048  0.86305447    -0.74300
O1221       O  0.46575029  0.70536826  0.93591443    -0.73700
O1222       O  0.53218172  0.70251710  0.86462252    -0.74200
O1223       O  0.58736917  0.74140650  0.91691715    -0.74100
O1224       O  0.58798922  0.70245153  0.94472582    -0.73900
C1225       C  0.53842859  0.59968955  0.90865201     0.77900
C1226       C  0.41424902  0.59336487  0.92352764     0.78400
C1227       C  0.50895471  0.66335607  0.99325947     0.77400
C1228       C  0.48228652  0.73406038  0.92276963     0.77700
C1229       C  0.51191196  0.67389458  0.85200270     0.78900
C1230       C  0.60308913  0.73308642  0.93414477     0.77900
Zn1231     Zn  0.14413388  0.00307611  0.96969696     1.49700
Zn1232     Zn  0.22147449  0.01536828  0.97301582     1.49400
Zn1233     Zn  0.18976149  0.04309952  0.51672322     1.49100
Zn1234     Zn  0.16149653  0.95857488  0.51217231     1.49500
O1235       O  0.17761013  0.00379250  0.49314196    -1.83400
O1236       O  0.16057540  0.00696716  0.93351941    -0.74000
O1237       O  0.26532451  0.04674141  0.99489402    -0.73800
O1238       O  0.16653447  0.07316142  0.50922209    -0.73300
O1239       O  0.21991146  0.03034417  0.93615576    -0.74000
O1240       O  0.13292864  0.04188849  0.97626735    -0.73600
O1241       O  0.24316300  0.07296724  0.52074616    -0.74200
O1242       O  0.17329526  0.97077174  0.55081089    -0.73600
O1243       O  0.22019061  0.96966670  0.96691994    -0.74300
O1244       O  0.17478711  0.02308297  0.55182977    -0.73700
O1245       O  0.18351984  0.92959352  0.49618114    -0.74200
O1246       O  0.10672226  0.92729750  0.50829672    -0.74100
O1247       O  0.09782690  0.95748469  0.97486188    -0.73900
C1248       C  0.19129808  0.01975183  0.92296587     0.77900
C1249       C  0.26833178  0.06813587  0.51284132     0.78400
C1250       C  0.14250315  0.06778493  0.49270440     0.77400
C1251       C  0.17416581  0.99677313  0.56321841     0.77700
C1252       C  0.20386675  0.93817583  0.97611823     0.78900
C1253       C  0.08609690  0.93338821  0.99220995     0.77900
Zn1254     Zn  0.22630758  0.03197143  0.72210625     1.49700
Zn1255     Zn  0.16641701  0.97345636  0.76101055     1.49400
Zn1256     Zn  0.19700978  0.05807303  0.76723551     1.49100
Zn1257     Zn  0.14736584  0.01734308  0.72106868     1.49500
O1258       O  0.18405548  0.01963750  0.74295431    -1.83400
O1259       O  0.22958854  0.98849466  0.71910224    -0.74000
O1260       O  0.17878473  0.98445708  0.79954576    -0.73800
O1261       O  0.25058768  0.08738725  0.77134843    -0.73300
O1262       O  0.18859805  0.94551529  0.74405660    -0.74000
O1263       O  0.27287495  0.06982066  0.73982187    -0.73600
O1264       O  0.18150294  0.03721616  0.80188062    -0.74200
O1265       O  0.14042331  0.05945699  0.72654724    -0.73600
O1266       O  0.11113725  0.94228823  0.75751406    -0.74300
O1267       O  0.17485038  0.08883157  0.75987402    -0.73700
O1268       O  0.10044175  0.97301990  0.72811259    -0.74200
O1269       O  0.15964231  0.01479214  0.68453253    -0.74100
O1270       O  0.21893980  0.03824555  0.68394632    -0.73900
C1271       C  0.21342659  0.95632317  0.72698840     0.77900
C1272       C  0.18062131  0.01040102  0.81264628     0.78400
C1273       C  0.27726626  0.08809236  0.76026342     0.77400
C1274       C  0.15199536  0.08496697  0.74279776     0.77700
C1275       C  0.08944237  0.94589310  0.74277601     0.78900
C1276       C  0.18873080  0.02451121  0.67228716     0.77900
Zn1277     Zn  0.98379738  0.12527229  0.97350204     1.49700
Zn1278     Zn  0.97552337  0.19284822  0.97550401     1.49400
Zn1279     Zn  0.94513942  0.13580875  0.51862962     1.49100
Zn1280     Zn  0.03300163  0.18795233  0.51328367     1.49500
O1281       O  0.98606241  0.16093020  0.49531421    -1.83400
O1282       O  0.98354147  0.13857982  0.93691870    -0.74000
O1283       O  0.94118419  0.20479017  0.99416689    -0.73800
O1284       O  0.91404298  0.08220254  0.51105889    -0.73300
O1285       O  0.96483793  0.17790600  0.93791211    -0.74000
O1286       O  0.94114601  0.07698956  0.98028031    -0.73600
O1287       O  0.91631980  0.16088604  0.52241678    -0.74200
O1288       O  0.02183037  0.18640948  0.55198391    -0.73600
O1289       O  0.02131948  0.23831441  0.97162911    -0.74300
O1290       O  0.96448421  0.14196364  0.55367086    -0.73700
O1291       O  0.06238707  0.23958577  0.49786020    -0.74200
O1292       O  0.06350366  0.16369592  0.50826973    -0.74100
O1293       O  0.02671330  0.12011247  0.97893334    -0.73900
C1294       C  0.97457180  0.15881861  0.92542477     0.77900
C1295       C  0.91998282  0.18923119  0.51207415     0.78400
C1296       C  0.91885743  0.06354751  0.49423880     0.77400
C1297       C  0.99338412  0.16491981  0.56465219     0.77700
C1298       C  0.05336718  0.25354180  0.97990123     0.78900
C1299       C  0.05491530  0.13492183  0.99270040     0.77900
Zn1300     Zn  0.97529621  0.19244603  0.72359153     1.49700
Zn1301     Zn  0.94909155  0.13709198  0.76910849     1.49400
Zn1302     Zn  0.99235790  0.13157126  0.72369792     1.49100
Zn1303     Zn  0.03309245  0.19510140  0.76439439     1.49500
O1304       O  0.98820662  0.16457182  0.74545289    -1.83400
O1305       O  0.93731599  0.19949289  0.74159091    -0.74000
O1306       O  0.91883555  0.08474755  0.76030846    -0.73800
O1307       O  0.99548450  0.14595792  0.68708079    -0.73300
O1308       O  0.91909972  0.15984952  0.77347921    -0.74000
O1309       O  0.96395844  0.17360159  0.68692879    -0.73600
O1310       O  0.95102411  0.08130746  0.72829508    -0.74200
O1311       O  0.06790799  0.17557928  0.75964292    -0.73600
O1312       O  0.96863793  0.14049330  0.80387683    -0.74300
O1313       O  0.03730454  0.13228577  0.73125263    -0.73700
O1314       O  0.02024612  0.19280068  0.80311746    -0.74200
O1315       O  0.05789162  0.24651798  0.74905573    -0.74100
O1316       O  0.01885249  0.24088614  0.71873455    -0.73900
C1317       C  0.91860274  0.18548834  0.76194775     0.77900
C1318       C  0.92412950  0.06654954  0.74349681     0.78400
C1319       C  0.98060129  0.16050804  0.67502336     0.77400
C1320       C  0.06502028  0.15046940  0.74502798     0.77700
C1321       C  0.99451192  0.16669036  0.81542124     0.78900
C1322       C  0.04896692  0.25913675  0.72996695     0.77900
Zn1323     Zn  0.86774811  0.85631864  0.97345521     1.49700
Zn1324     Zn  0.80388498  0.77793875  0.97317273     1.49400
Zn1325     Zn  0.85933973  0.80513052  0.51848275     1.49100
Zn1326     Zn  0.80481927  0.83378738  0.51257344     1.49500
O1327       O  0.83405426  0.81785842  0.49402527    -1.83400
O1328       O  0.85487818  0.84412183  0.93657697    -0.74000
O1329       O  0.79190765  0.73152737  0.99169627    -0.73800
O1330       O  0.91198750  0.82491685  0.50997968    -0.73300
O1331       O  0.82140895  0.78469866  0.93598483    -0.74000
O1332       O  0.91793087  0.86555142  0.97901128    -0.73600
O1333       O  0.83285690  0.75196475  0.52403119    -0.74200
O1334       O  0.80398965  0.82160653  0.55102704    -0.73600
O1335       O  0.75840646  0.77761507  0.96806853    -0.74300
O1336       O  0.85667906  0.82366639  0.55256712    -0.73700
O1337       O  0.75492060  0.81206946  0.49551026    -0.74200
O1338       O  0.82766340  0.88826730  0.50928934    -0.74100
O1339       O  0.86714685  0.90111634  0.98126296    -0.73900
C1340       C  0.83791497  0.81481030  0.92425289     0.77900
C1341       C  0.80657053  0.72576060  0.51269864     0.78400
C1342       C  0.93149383  0.84894710  0.49361455     0.77400
C1343       C  0.82996669  0.82272729  0.56373541     0.77700
C1344       C  0.74200282  0.79205613  0.97807018     0.78900
C1345       C  0.85127559  0.91040098  0.99753414     0.77900
Zn1346     Zn  0.86814915  0.85806857  0.72142160     1.49700
Zn1347     Zn  0.86265205  0.81345455  0.76854527     1.49400
Zn1348     Zn  0.80415654  0.83717098  0.76282086     1.49100
Zn1349     Zn  0.80304862  0.77915298  0.72428357     1.49500
O1350       O  0.83404494  0.82198489  0.74407573    -1.83400
O1351       O  0.91932062  0.86935691  0.72672552    -0.74000
O1352       O  0.85746923  0.82890812  0.80324193    -0.73800
O1353       O  0.82744510  0.89166142  0.75856614    -0.73300
O1354       O  0.91604602  0.83748833  0.76098010    -0.74000
O1355       O  0.86767608  0.90274117  0.72767252    -0.73600
O1356       O  0.80421382  0.82558657  0.80148167    -0.74200
O1357       O  0.75428705  0.77379968  0.72102523    -0.73600
O1358       O  0.84117371  0.76118011  0.77294166    -0.74300
O1359       O  0.75265690  0.81351028  0.74715602    -0.73700
O1360       O  0.79859259  0.73558129  0.74300409    -0.74200
O1361       O  0.81760476  0.78468185  0.68653821    -0.74100
O1362       O  0.85473205  0.84369809  0.68511396    -0.73900
C1363       C  0.93448312  0.85988874  0.74344242     0.77900
C1364       C  0.83023085  0.82693579  0.81427614     0.78400
C1365       C  0.85182311  0.91322602  0.74295693     0.77400
C1366       C  0.73807991  0.78919526  0.72989915     0.77700
C1367       C  0.81521982  0.73351489  0.76272252     0.78900
C1368       C  0.83572116  0.81380580  0.67390324     0.77900
C1369       C  0.80541849  0.79165187  0.88236681    -0.20500
C1370       C  0.83620492  0.81676409  0.89587616    -0.08600
C1371       C  0.86373179  0.84610082  0.88237435     0.30300
C1372       C  0.86054937  0.84998895  0.85601368    -0.20500
C1373       C  0.82970643  0.82525819  0.84258589    -0.08600
C1374       C  0.80206778  0.79591933  0.85590131     0.30300
F1375       F  0.77272158  0.77062220  0.84312419    -0.19100
H1376       H  0.78370124  0.76907689  0.89238223     0.18700
H1377       H  0.88256660  0.87219083  0.84589464     0.18700
F1378       F  0.89409873  0.87078722  0.89455130    -0.19100
C1379       C  0.86294289  0.84073875  0.60497043    -0.20500
C1380       C  0.82989587  0.82186478  0.59208715    -0.08600
C1381       C  0.79870664  0.79893726  0.60621912     0.30300
C1382       C  0.80089892  0.79484793  0.63284061    -0.20500
C1383       C  0.83404332  0.81406165  0.64562171    -0.08600
C1384       C  0.86502384  0.83717466  0.63145375     0.30300
F1385       F  0.89747078  0.85601831  0.64321132    -0.19100
H1386       H  0.88739012  0.85816865  0.59440366     0.18700
H1387       H  0.77664455  0.77737905  0.64356134     0.18700
F1388       F  0.76653833  0.77959812  0.59421492    -0.19100
C1389       C  0.88074215  0.00781687  0.76420390    -0.20500
C1390       C  0.89981504  0.02729915  0.74221411    -0.08600
C1391       C  0.89829080  0.00854440  0.71973887     0.30300
C1392       C  0.88035401  0.97130360  0.71987164    -0.20500
C1393       C  0.86366084  0.95177687  0.74235756    -0.08600
C1394       C  0.86282180  0.97026384  0.76435921     0.30300
F1395       F  0.84715364  0.95238548  0.78649194    -0.19100
H1396       H  0.88148548  0.02166882  0.78176431     0.18700
H1397       H  0.88083622  0.95770866  0.70249145     0.18700
F1398       F  0.91518786  0.02616134  0.69779573    -0.19100
C1399       C  0.97371867  0.13133765  0.88332046    -0.20500
C1400       C  0.97772497  0.16102900  0.89706146    -0.08600
C1401       C  0.98926177  0.19352234  0.88385630     0.30300
C1402       C  0.99694850  0.19608549  0.85739981    -0.20500
C1403       C  0.99261335  0.16617829  0.84376205    -0.08600
C1404       C  0.98067483  0.13369463  0.85695770     0.30300
F1405       F  0.97575199  0.10412103  0.84428971    -0.19100
H1406       H  0.96522390  0.10614442  0.89306990     0.18700
H1407       H  0.00520436  0.22105991  0.84741738     0.18700
F1408       F  0.99413587  0.22299859  0.89660707    -0.19100
C1409       C  0.01601612  0.16805827  0.63523707    -0.20500
C1410       C  0.98421467  0.16309679  0.64678989    -0.08600
C1411       C  0.95660798  0.16065408  0.63117678     0.30300
C1412       C  0.96042375  0.16209411  0.60445012    -0.20500
C1413       C  0.99204219  0.16671498  0.59287518    -0.08600
C1414       C  0.02013125  0.17026656  0.60845634     0.30300
F1415       F  0.05071021  0.17422922  0.59782370    -0.19100
H1416       H  0.03776960  0.17028626  0.64701036     0.18700
H1417       H  0.93841858  0.15929862  0.59268018     0.18700
F1418       F  0.92546438  0.15546222  0.64165587    -0.19100
C1419       C  0.87631077  0.00430947  0.51506637    -0.20500
C1420       C  0.89496933  0.02411077  0.49307876    -0.08600
C1421       C  0.88745955  0.00474010  0.97397176     0.30300
C1422       C  0.87219354  0.96768131  0.97440177    -0.20500
C1423       C  0.86111056  0.94851456  0.99765410    -0.08600
C1424       C  0.86034287  0.96682846  0.51545522     0.30300
F1425       F  0.84463045  0.94870478  0.53749227    -0.19100
H1426       H  0.87600753  0.01795364  0.53245426     0.18700
H1427       H  0.87023940  0.95400922  0.95647690     0.18700
F1428       F  0.89891546  0.02209473  0.95106152    -0.19100
C1429       C  0.03207997  0.90040453  0.76479654    -0.20500
C1430       C  0.05042131  0.91884269  0.74236730    -0.08600
C1431       C  0.03045750  0.91385766  0.71972823     0.30300
C1432       C  0.99298267  0.89316056  0.72003723    -0.20500
C1433       C  0.97430748  0.87665610  0.74281135    -0.08600
C1434       C  0.99432153  0.87949060  0.76509948     0.30300
F1435       F  0.97746955  0.86407364  0.78759435    -0.19100
H1436       H  0.04680200  0.90373395  0.78244721     0.18700
H1437       H  0.97845995  0.89093652  0.70247821     0.18700
F1438       F  0.04715550  0.92971504  0.69727728    -0.19100
C1439       C  0.11723833  0.10834251  0.72043528    -0.20500
C1440       C  0.13659047  0.10885294  0.74225663    -0.08600
C1441       C  0.13692856  0.12866319  0.76397905     0.30300
C1442       C  0.11541878  0.14455104  0.76447393    -0.20500
C1443       C  0.09351634  0.14095533  0.74335151    -0.08600
C1444       C  0.09610461  0.12416983  0.72086398     0.30300
F1445       F  0.07692954  0.12164612  0.69943758    -0.19100
H1446       H  0.11711637  0.09419054  0.70320186     0.18700
H1447       H  0.11422847  0.15768647  0.78187910     0.18700
F1448       F  0.15596226  0.13064145  0.78532460    -0.19100
C1449       C  0.20614806  0.00195823  0.88119755    -0.20500
C1450       C  0.19245042  0.02056941  0.89472196    -0.08600
C1451       C  0.17425391  0.03466926  0.88128210     0.30300
C1452       C  0.16987697  0.03032013  0.85472773    -0.20500
C1453       C  0.18294117  0.01123624  0.84103478    -0.08600
C1454       C  0.20122251  0.99703660  0.85448765     0.30300
F1455       F  0.21491589  0.97917165  0.84183258    -0.19100
H1456       H  0.21949031  0.99016385  0.89145909     0.18700
H1457       H  0.15599506  0.04182477  0.84481776     0.18700
F1458       F  0.16048883  0.05249282  0.89394184    -0.19100
C1459       C  0.20476973  0.00047458  0.60491035    -0.20500
C1460       C  0.17547014  0.99834627  0.59154586    -0.08600
C1461       C  0.15120710  0.00522732  0.60475615     0.30300
C1462       C  0.15629782  0.01443401  0.63076271    -0.20500
C1463       C  0.18605970  0.01762897  0.64417381    -0.08600
C1464       C  0.21016935  0.01014891  0.63105694     0.30300
F1465       F  0.23851780  0.01161804  0.64352347    -0.19100
H1466       H  0.22423368  0.99609619  0.59484648     0.18700
H1467       H  0.13697907  0.01944586  0.64039792     0.18700
F1468       F  0.12284794  0.00372508  0.59225703    -0.19100
C1469       C  0.02747037  0.89877266  0.96973651    -0.20500
C1470       C  0.04697702  0.90761455  0.99287037    -0.08600
C1471       C  0.02775306  0.88320746  0.51421615     0.30300
C1472       C  0.98999621  0.86349908  0.51423226    -0.20500
C1473       C  0.97063415  0.86278488  0.49221863    -0.08600
C1474       C  0.98995988  0.87922266  0.96990815     0.30300
F1475       F  0.97206777  0.87204067  0.94719664    -0.19100
H1476       H  0.04132873  0.90802755  0.95145505     0.18700
H1477       H  0.97595404  0.85078416  0.53192100     0.18700
F1478       F  0.04561419  0.88572460  0.53633282    -0.19100
C1479       C  0.10546764  0.08898615  0.47041407    -0.20500
C1480       C  0.12610331  0.09095785  0.49190997    -0.08600
C1481       C  0.13132133  0.11694800  0.00791550     0.30300
C1482       C  0.10984320  0.13295963  0.00789249    -0.20500
C1483       C  0.07959948  0.12011882  0.99168814    -0.08600
C1484       C  0.08533115  0.10601470  0.47028179     0.30300
F1485       F  0.06551915  0.10257277  0.44903405    -0.19100
H1486       H  0.10403648  0.07328999  0.45375524     0.18700
H1487       H  0.11649825  0.15494846  0.02091932     0.18700
F1488       F  0.15987397  0.12982823  0.02408136    -0.19100
C1489       C  0.67942312  0.78225463  0.98021465    -0.20500
C1490       C  0.70796092  0.78465613  0.96565458    -0.08600
C1491       C  0.70276232  0.77678607  0.93902868     0.30300
C1492       C  0.66893365  0.76387397  0.92785814    -0.20500
C1493       C  0.63974698  0.75846469  0.94295508    -0.08600
C1494       C  0.64541391  0.76881020  0.96903588     0.30300
F1495       F  0.61731939  0.76325021  0.98414559    -0.19100
H1496       H  0.68269303  0.78639042  0.49897632     0.18700
H1497       H  0.66492016  0.75538722  0.90791311     0.18700
F1498       F  0.72999710  0.77991752  0.92397387    -0.19100
C1499       C  0.51554781  0.64714058  0.81103180    -0.20500
C1500       C  0.51184042  0.67366928  0.82376522    -0.08600
C1501       C  0.50357336  0.69606637  0.80957460     0.30300
C1502       C  0.49827075  0.69126935  0.78296830    -0.20500
C1503       C  0.50162506  0.66440073  0.77014281    -0.08600
C1504       C  0.51092151  0.64271544  0.78444750     0.30300
F1505       F  0.51465522  0.61664265  0.77294938    -0.19100
H1506       H  0.52156449  0.62939859  0.82185383     0.18700
H1507       H  0.49157616  0.70867603  0.77238781     0.18700
F1508       F  0.49887416  0.72124993  0.82156442    -0.19100
C1509       C  0.53917269  0.68557016  0.56188040    -0.20500
C1510       C  0.50723795  0.67898226  0.57404639    -0.08600
C1511       C  0.47562120  0.66549419  0.55938283     0.30300
C1512       C  0.47586247  0.65831479  0.53328618    -0.20500
C1513       C  0.50743131  0.66402146  0.52113062    -0.08600
C1514       C  0.53930532  0.67799128  0.53559488     0.30300
F1515       F  0.57063002  0.68514724  0.52424510    -0.19100
H1516       H  0.56368830  0.69543749  0.57289552     0.18700
H1517       H  0.45109552  0.64812114  0.52250817     0.18700
F1518       F  0.44426084  0.65901811  0.57033299    -0.19100
C1519       C  0.67392016  0.77593807  0.73379710    -0.20500
C1520       C  0.70230320  0.77886944  0.71862954    -0.08600
C1521       C  0.69580433  0.76979119  0.69225978     0.30300
C1522       C  0.66146667  0.75647371  0.68172436    -0.20500
C1523       C  0.63267031  0.75137724  0.69721293    -0.08600
C1524       C  0.63923712  0.76174069  0.72330573     0.30300
F1525       F  0.61174525  0.75676338  0.73886444    -0.19100
H1526       H  0.67811795  0.78279220  0.75404826     0.18700
H1527       H  0.65691946  0.74813377  0.66174980     0.18700
F1528       F  0.72259416  0.77302019  0.67667545    -0.19100
C1529       C  0.31945146  0.53445011  0.90047165    -0.20500
C1530       C  0.30027799  0.52783036  0.92362577    -0.08600
C1531       C  0.31901068  0.53729905  0.94710758     0.30300
C1532       C  0.35656555  0.55677583  0.94712734    -0.20500
C1533       C  0.37577217  0.56596871  0.92380947    -0.08600
C1534       C  0.35697148  0.55287729  0.90053408     0.30300
F1535       F  0.37465893  0.56080763  0.87764545    -0.19100
H1536       H  0.30542123  0.52694458  0.88228320     0.18700
H1537       H  0.37056559  0.56621986  0.96522020     0.18700
F1538       F  0.30119488  0.53082626  0.96986707    -0.19100
C1539       C  0.12956736  0.35001549  0.96969043    -0.20500
C1540       C  0.12037279  0.35779555  0.94537828    -0.08600
C1541       C  0.09163786  0.32981263  0.93188284     0.30300
C1542       C  0.07144157  0.29598971  0.94307845    -0.20500
C1543       C  0.07909278  0.28872289  0.96797641    -0.08600
C1544       C  0.10926259  0.31577264  0.98087407     0.30300
F1545       F  0.11789621  0.30985696  0.00476964    -0.19100
H1546       H  0.15159328  0.37086809  0.98060025     0.18700
H1547       H  0.04890450  0.27548099  0.93231706     0.18700
F1548       F  0.08187673  0.33526426  0.90822781    -0.19100
C1549       C  0.18317385  0.52234906  0.78277175    -0.20500
C1550       C  0.15083870  0.49710033  0.77089893    -0.08600
C1551       C  0.12518545  0.46777329  0.78544216     0.30300
C1552       C  0.13231234  0.46366360  0.81114299    -0.20500
C1553       C  0.16488266  0.48881327  0.82278436    -0.08600
C1554       C  0.19019886  0.51834611  0.80832143     0.30300
F1555       F  0.22201469  0.54326893  0.81874912    -0.19100
H1556       H  0.20360059  0.54512655  0.77208507     0.18700
H1557       H  0.11200976  0.44115865  0.82210804     0.18700
F1558       F  0.09377628  0.44258412  0.77472915    -0.19100
C1559       C  0.16968624  0.47153306  0.55995684    -0.20500
C1560       C  0.15397891  0.48770558  0.57388169    -0.08600
C1561       C  0.13669053  0.50312734  0.56027925     0.30300
C1562       C  0.13667303  0.50364485  0.53336999    -0.20500
C1563       C  0.15386986  0.48896828  0.51942769    -0.08600
C1564       C  0.16976400  0.47213107  0.53305379     0.30300
F1565       F  0.18555157  0.45618164  0.52046572    -0.19100
H1566       H  0.18271209  0.45915855  0.56988218     0.18700
H1567       H  0.12387436  0.51626506  0.52346940     0.18700
F1568       F  0.11968037  0.51778972  0.57292982    -0.19100
C1569       C  0.30559529  0.53328889  0.65377039    -0.20500
C1570       C  0.28634349  0.53265695  0.67578962    -0.08600
C1571       C  0.30574330  0.55090149  0.69800482     0.30300
C1572       C  0.34319219  0.57211495  0.69734289    -0.20500
C1573       C  0.36242722  0.57536823  0.67469949    -0.08600
C1574       C  0.34333604  0.55435736  0.65317948     0.30300
F1575       F  0.36075827  0.55598004  0.63097833    -0.19100
H1576       H  0.29137974  0.51942461  0.63647023     0.18700
H1577       H  0.35707024  0.58702930  0.71442830     0.18700
F1578       F  0.28834712  0.54945911  0.72020020    -0.19100
C1579       C  0.08339330  0.30153380  0.69409635    -0.20500
C1580       C  0.07321206  0.29589515  0.72026782    -0.08600
C1581       C  0.08163915  0.32554625  0.73579706     0.30300
C1582       C  0.09829587  0.35994818  0.72504334    -0.20500
C1583       C  0.10744940  0.36565878  0.69867820    -0.08600
C1584       C  0.10093141  0.33619640  0.68341985     0.30300
F1585       F  0.10908818  0.34051686  0.65792921    -0.19100
H1586       H  0.07664166  0.27885718  0.68172233     0.18700
H1587       H  0.10301934  0.38220759  0.73724330     0.18700
F1588       F  0.07123295  0.32095922  0.76086866    -0.19100
C1589       C  0.23191599  0.86856772  0.96694916    -0.20500
C1590       C  0.24244827  0.87400094  0.94084607    -0.08600
C1591       C  0.23523854  0.89659472  0.92591607     0.30300
C1592       C  0.22024878  0.91536512  0.93735933    -0.20500
C1593       C  0.21187205  0.91185778  0.96388757    -0.08600
C1594       C  0.21623549  0.88688854  0.97834554     0.30300
F1595       F  0.20856661  0.88269833  0.00390791    -0.19100
H1596       H  0.23796473  0.85180151  0.97893164     0.18700
H1597       H  0.21697321  0.93427825  0.92568557     0.18700
F1598       F  0.24595824  0.90326000  0.90092256    -0.19100
C1599       C  0.22361343  0.64706716  0.89535928    -0.20500
C1600       C  0.20718923  0.62739205  0.91794992    -0.08600
C1601       C  0.20675589  0.64618332  0.93993683     0.30300
C1602       C  0.22466865  0.68384712  0.93974022    -0.20500
C1603       C  0.24205117  0.70343583  0.91737446    -0.08600
C1604       C  0.24041616  0.68458066  0.89493125     0.30300
F1605       F  0.25740082  0.70256180  0.87312057    -0.19100
H1606       H  0.22421791  0.63336154  0.87808668     0.18700
H1607       H  0.22589772  0.69784841  0.95733429     0.18700
F1608       F  0.19116135  0.62838688  0.96210001    -0.19100
C1609       C  0.42982155  0.77777594  0.94399481    -0.20500
C1610       C  0.43074162  0.79699957  0.92193347    -0.08600
C1611       C  0.45285215  0.79922364  0.90110455     0.30300
C1612       C  0.47138522  0.78027508  0.90184004    -0.20500
C1613       C  0.46806896  0.75889041  0.92326215    -0.08600
C1614       C  0.44817664  0.75902260  0.94473178     0.30300
F1615       F  0.44567760  0.74024258  0.96636776    -0.19100
H1616       H  0.41379053  0.77621025  0.96056864     0.18700
H1617       H  0.48675000  0.78082096  0.88514745     0.18700
F1618       F  0.45486113  0.81778326  0.87947306    -0.19100
C1619       C  0.36868699  0.85342347  0.78038598    -0.20500
C1620       C  0.33886825  0.84846849  0.76644370    -0.08600
C1621       C  0.30711547  0.84059527  0.77969159     0.30300
C1622       C  0.30524291  0.83713214  0.80648183    -0.20500
C1623       C  0.33483164  0.84120519  0.82052097    -0.08600
C1624       C  0.36678351  0.84959280  0.80709196     0.30300
F1625       F  0.39630749  0.85377856  0.81955971    -0.19100
H1626       H  0.39317570  0.85909474  0.77050792     0.18700
H1627       H  0.28058345  0.83120697  0.81620157     0.18700
F1628       F  0.27792614  0.83648752  0.76674743    -0.19100
C1629       C  0.34694220  0.87347401  0.53068585    -0.20500
C1630       C  0.34391841  0.84369924  0.51758517    -0.08600
C1631       C  0.33425524  0.81206874  0.53145626     0.30300
C1632       C  0.32752580  0.81038213  0.55772739    -0.20500
C1633       C  0.33013196  0.83992253  0.57070666    -0.08600
C1634       C  0.34004864  0.87164793  0.55707402     0.30300
F1635       F  0.34442437  0.90124394  0.56937207    -0.19100
H1636       H  0.35415979  0.89804137  0.52047129     0.18700
H1637       H  0.32046470  0.78589417  0.56802702     0.18700
F1638       F  0.33120770  0.78260894  0.51977836    -0.19100
C1639       C  0.24237690  0.94260165  0.69079113    -0.20500
C1640       C  0.22371001  0.93188770  0.71443706    -0.08600
C1641       C  0.21601361  0.89888593  0.72506298     0.30300
C1642       C  0.22901095  0.87853164  0.71309039    -0.20500
C1643       C  0.24959638  0.89052563  0.69021378    -0.08600
C1644       C  0.25505738  0.92235086  0.67879406     0.30300
F1645       F  0.27381488  0.93484702  0.65646312    -0.19100
H1646       H  0.24785164  0.96730519  0.68156848     0.18700
H1647       H  0.22420252  0.85409068  0.72236284     0.18700
F1648       F  0.19741482  0.88703320  0.74748336    -0.19100
C1649       C  0.20635002  0.65238064  0.69216427    -0.20500
C1650       C  0.20116572  0.63284773  0.66945401    -0.08600
C1651       C  0.21492315  0.65117850  0.64607955     0.30300
C1652       C  0.23529686  0.68851991  0.64577577    -0.20500
C1653       C  0.24153910  0.70811460  0.66862580    -0.08600
C1654       C  0.22592630  0.68979617  0.69175278     0.30300
F1655       F  0.23170642  0.70787043  0.71423757    -0.19100
H1656       H  0.19607028  0.63859177  0.71034718     0.18700
H1657       H  0.24711850  0.70213120  0.62777248     0.18700
F1658       F  0.21106004  0.63297276  0.62390514    -0.19100
C1659       C  0.44518855  0.80197216  0.69318490    -0.20500
C1660       C  0.43448564  0.80913777  0.66951539    -0.08600
C1661       C  0.44521492  0.79981504  0.64655744     0.30300
C1662       C  0.46410162  0.78136183  0.64740694    -0.20500
C1663       C  0.47173814  0.77119742  0.67112350    -0.08600
C1664       C  0.46322622  0.78270389  0.69403692     0.30300
F1665       F  0.47081042  0.77374212  0.71728061    -0.19100
H1666       H  0.43722993  0.80890637  0.71106418     0.18700
H1667       H  0.47034211  0.77269245  0.62956590     0.18700
F1668       F  0.43599199  0.80714428  0.62331994    -0.19100
C1669       C  0.60762883  0.57250498  0.89478838    -0.20500
C1670       C  0.59541205  0.55416171  0.87118591    -0.08600
C1671       C  0.56181157  0.54680968  0.86188974     0.30300
C1672       C  0.54228334  0.55980247  0.87508441    -0.20500
C1673       C  0.55562704  0.58001767  0.89794970    -0.08600
C1674       C  0.58810170  0.58515038  0.90806125     0.30300
F1675       F  0.60200757  0.60377284  0.93017961    -0.19100
H1676       H  0.63290919  0.57765732  0.90296145     0.18700
H1677       H  0.51728359  0.55519056  0.86676478     0.18700
F1678       F  0.54862294  0.52864107  0.83952604    -0.19100
C1679       C  0.76626135  0.63422679  0.77697592    -0.20500
C1680       C  0.76958371  0.63426488  0.80397299    -0.08600
C1681       C  0.79074719  0.66675218  0.81677854     0.30300
C1682       C  0.80734676  0.69876134  0.80280581    -0.20500
C1683       C  0.80235293  0.69893056  0.77595912    -0.08600
C1684       C  0.78208234  0.66624325  0.76308047     0.30300
F1685       F  0.77686921  0.66522051  0.73724308    -0.19100
H1686       H  0.74990600  0.60937376  0.76668884     0.18700
H1687       H  0.82270232  0.72364013  0.81325641     0.18700
F1688       F  0.79502517  0.66759263  0.84271143    -0.19100
C1689       C  0.67489646  0.54366433  0.94917049    -0.20500
C1690       C  0.67892319  0.51709179  0.93663877    -0.08600
C1691       C  0.66975014  0.48527858  0.95004664     0.30300
C1692       C  0.65691906  0.48023359  0.97514668    -0.20500
C1693       C  0.65314744  0.50669470  0.98788766    -0.08600
C1694       C  0.66204827  0.53855194  0.97462907     0.30300
F1695       F  0.65942465  0.56508627  0.98641727    -0.19100
H1696       H  0.68099102  0.56802985  0.93911442     0.18700
H1697       H  0.65058186  0.45557087  0.98488195     0.18700
F1698       F  0.67320176  0.45876062  0.93898583    -0.19100
C1699       C  0.69777172  0.52681152  0.69997694    -0.20500
C1700       C  0.66567853  0.51330901  0.68620080    -0.08600
C1701       C  0.63299876  0.49993289  0.70007115     0.30300
C1702       C  0.63249867  0.49839248  0.72700916    -0.20500
C1703       C  0.66437206  0.50990331  0.74070149    -0.08600
C1704       C  0.69725258  0.52513451  0.72689593     0.30300
F1705       F  0.72912218  0.53839213  0.73938469    -0.19100
H1706       H  0.72319947  0.53761775  0.68990730     0.18700
H1707       H  0.60704575  0.48720834  0.73709257     0.18700
F1708       F  0.60127777  0.48797286  0.68762322    -0.19100
C1709       C  0.56258421  0.54362967  0.64203847    -0.20500
C1710       C  0.56668494  0.54494580  0.61503555    -0.08600
C1711       C  0.55340563  0.56299133  0.60040270     0.30300
C1712       C  0.53696276  0.57981645  0.61267792    -0.20500
C1713       C  0.53428668  0.57974373  0.63975188    -0.08600
C1714       C  0.54698788  0.56117106  0.65432561     0.30300
F1715       F  0.54452007  0.56010398  0.68041670    -0.19100
H1716       H  0.57277662  0.53008951  0.65385121     0.18700
H1717       H  0.52750333  0.59412658  0.60099765     0.18700
F1718       F  0.55648110  0.56456634  0.57434941    -0.19100
C1719       C  0.79754506  0.68676141  0.55146038    -0.20500
C1720       C  0.78885082  0.68996989  0.52567067    -0.08600
C1721       C  0.76028744  0.65973209  0.51393020     0.30300
C1722       C  0.73983908  0.62821097  0.52803008    -0.20500
C1723       C  0.74713957  0.62564881  0.55415945    -0.08600
C1724       C  0.77699173  0.65491218  0.56557386     0.30300
F1725       F  0.78490148  0.65359783  0.59069060    -0.19100
H1726       H  0.81930070  0.70950314  0.56119326     0.18700
H1727       H  0.71745036  0.60575021  0.51853262     0.18700
F1728       F  0.75114397  0.66081316  0.48907864    -0.19100
C1729       C  0.53856912  0.32200564  0.82635041    -0.20500
C1730       C  0.54620063  0.30358387  0.84542750    -0.08600
C1731       C  0.56996522  0.32349977  0.86539935     0.30300
C1732       C  0.58788210  0.36070575  0.86494080    -0.20500
C1733       C  0.58284800  0.37930230  0.84468178    -0.08600
C1734       C  0.55660192  0.35960836  0.82600351     0.30300
F1735       F  0.54992458  0.37648194  0.80663157    -0.19100
H1736       H  0.51990997  0.30740509  0.81095777     0.18700
H1737       H  0.60710199  0.37505525  0.88011206     0.18700
F1738       F  0.57761871  0.30734273  0.88477029    -0.19100
C1739       C  0.42502968  0.00058757  0.90611932    -0.20500
C1740       C  0.42654567  0.97265209  0.89362708    -0.08600
C1741       C  0.44486713  0.98014198  0.86971990     0.30300
C1742       C  0.45920293  0.01405935  0.85811576    -0.20500
C1743       C  0.45546774  0.04111435  0.86995069    -0.08600
C1744       C  0.43935231  0.03432109  0.89460401     0.30300
F1745       F  0.43707464  0.06027769  0.90765328    -0.19100
H1746       H  0.41175303  0.99609297  0.92461388     0.18700
H1747       H  0.47188644  0.01865375  0.83938268     0.18700
F1748       F  0.44746126  0.95429570  0.85682869    -0.19100
C1749       C  0.34319579  0.10822027  0.76185412    -0.20500
C1750       C  0.31327911  0.10790854  0.77296380    -0.08600
C1751       C  0.31715957  0.12271202  0.79790991     0.30300
C1752       C  0.34935884  0.13556146  0.81164320    -0.20500
C1753       C  0.37869681  0.13500397  0.80065016    -0.08600
C1754       C  0.37562404  0.12190208  0.77539902     0.30300
F1755       F  0.40355890  0.12080641  0.76425684    -0.19100
H1756       H  0.34124796  0.09692915  0.74290879     0.18700
H1757       H  0.35141799  0.14607341  0.83088963     0.18700
F1758       F  0.28955063  0.12384005  0.80954013    -0.19100
C1759       C  0.45903937  0.15202304  0.97857572    -0.20500
C1760       C  0.48669551  0.14912495  0.99061151    -0.08600
C1761       C  0.51413986  0.15022776  0.97545187     0.30300
C1762       C  0.51469447  0.15577257  0.94888005    -0.20500
C1763       C  0.48759319  0.15968419  0.93685927    -0.08600
C1764       C  0.45915263  0.15679747  0.95190077     0.30300
F1765       F  0.43236593  0.16012630  0.94107628    -0.19100
H1766       H  0.43763798  0.15132156  0.98999176     0.18700
H1767       H  0.53664608  0.15731062  0.93768006     0.18700
F1768       F  0.54154721  0.14816325  0.98647374    -0.19100
C1769       C  0.47245217  0.12999263  0.70300497    -0.20500
C1770       C  0.48547264  0.16242302  0.68955371    -0.08600
C1771       C  0.50594189  0.19485140  0.70269214     0.30300
C1772       C  0.51363218  0.19489096  0.72870889    -0.20500
C1773       C  0.50132696  0.16260948  0.74233174    -0.08600
C1774       C  0.48044729  0.12998188  0.72921463     0.30300
F1775       F  0.46760944  0.09820514  0.74162828    -0.19100
H1776       H  0.45735174  0.10472906  0.69297516     0.18700
H1777       H  0.52942043  0.22049214  0.73818860     0.18700
F1778       F  0.51887261  0.22664380  0.69022028    -0.19100
C1779       C  0.52561858  0.31094328  0.56973568    -0.20500
C1780       C  0.52530194  0.29367734  0.59274469    -0.08600
C1781       C  0.53807325  0.31378593  0.61550648     0.30300
C1782       C  0.55365276  0.35091380  0.61470605    -0.20500
C1783       C  0.55740057  0.36841263  0.59117511    -0.08600
C1784       C  0.54197655  0.34816878  0.56884743     0.30300
F1785       F  0.54434513  0.36451093  0.54599943    -0.19100
H1786       H  0.51547556  0.29589907  0.55203711     0.18700
H1787       H  0.56538741  0.36618544  0.63212120     0.18700
F1788       F  0.53699280  0.29779089  0.63826278    -0.19100
C1789       C  0.45050033  0.00586850  0.60175248    -0.20500
C1790       C  0.46505299  0.03676297  0.61686086    -0.08600
C1791       C  0.46610601  0.03365097  0.64386927     0.30300
C1792       C  0.44969469  0.99988185  0.65565307    -0.20500
C1793       C  0.43154462  0.96894696  0.64063349    -0.08600
C1794       C  0.43360476  0.97213776  0.61352248     0.30300
F1795       F  0.41676076  0.94254353  0.59844445    -0.19100
H1796       H  0.44921957  0.00772125  0.58101063     0.18700
H1797       H  0.44832839  0.99803176  0.67647573     0.18700
F1798       F  0.48053093  0.06333170  0.65893229    -0.19100
C1799       C  0.34382456  0.07700618  0.55490470    -0.20500
C1800       C  0.36052025  0.11298747  0.56253810    -0.08600
C1801       C  0.34714463  0.13449503  0.55306437     0.30300
C1802       C  0.31766956  0.12014098  0.53632785    -0.20500
C1803       C  0.30193269  0.08456343  0.52791642    -0.08600
C1804       C  0.31504843  0.06296891  0.53755799     0.30300
F1805       F  0.29928560  0.02793669  0.53082097    -0.19100
H1806       H  0.35410444  0.06015132  0.56147438     0.18700
H1807       H  0.30728673  0.13689609  0.52973231     0.18700
F1808       F  0.36283791  0.16951465  0.55981870    -0.19100
C1809       C  0.89934199  0.23083386  0.76173828    -0.20500
C1810       C  0.89888292  0.20173990  0.77393704    -0.08600
C1811       C  0.88436589  0.19234832  0.79914600     0.30300
C1812       C  0.87327464  0.21345257  0.81230209    -0.20500
C1813       C  0.87670477  0.24423223  0.80066660    -0.08600
C1814       C  0.88845865  0.25180669  0.77483077     0.30300
F1815       F  0.89011686  0.28008609  0.76221670    -0.19100
H1816       H  0.90973449  0.23851183  0.74233243     0.18700
H1817       H  0.86368829  0.20672678  0.83195595     0.18700
F1818       F  0.88270827  0.16405379  0.81171582    -0.19100
C1819       C  0.77685102  0.45709897  0.81252936    -0.20500
C1820       C  0.77030617  0.46796222  0.83638598    -0.08600
C1821       C  0.78465639  0.46213208  0.85887478     0.30300
C1822       C  0.80311560  0.44342372  0.85761692    -0.20500
C1823       C  0.80674188  0.42965426  0.83403084    -0.08600
C1824       C  0.79461547  0.43778100  0.81130897     0.30300
F1825       F  0.79849669  0.42575189  0.78806777    -0.19100
H1826       H  0.76614165  0.46151082  0.79494057     0.18700
H1827       H  0.81247592  0.43770816  0.87534545     0.18700
F1828       F  0.77977117  0.47341422  0.88210618    -0.19100
C1829       C  0.68804407  0.24007594  0.81181861    -0.20500
C1830       C  0.70870635  0.24132473  0.83319412    -0.08600
C1831       C  0.69082312  0.22170626  0.85543787     0.30300
C1832       C  0.65311294  0.20318580  0.85667267    -0.20500
C1833       C  0.63270370  0.20294837  0.83552304    -0.08600
C1834       C  0.65046048  0.22091558  0.81287047     0.30300
F1835       F  0.63152641  0.22219014  0.79244090    -0.19100
H1836       H  0.70106260  0.25491296  0.79444076     0.18700
H1837       H  0.63980818  0.18989124  0.87443241     0.18700
F1838       F  0.70967872  0.22235590  0.87653548    -0.19100
C1839       C  0.98043275  0.44286275  0.88474616    -0.20500
C1840       C  0.97532850  0.42528053  0.86080516    -0.08600
C1841       C  0.00485395  0.42518399  0.84948271     0.30300
C1842       C  0.03749802  0.43983341  0.86255172    -0.20500
C1843       C  0.04190156  0.45499369  0.88728224    -0.08600
C1844       C  0.01344419  0.45773394  0.89785140     0.30300
F1845       F  0.01671732  0.47274845  0.92135789    -0.19100
H1846       H  0.95835143  0.44371025  0.89396353     0.18700
H1847       H  0.05926448  0.43823679  0.85346610     0.18700
F1848       F  0.00192504  0.40938360  0.82633554    -0.19100
C1849       C  0.87147342  0.33568926  0.94459289    -0.20500
C1850       C  0.83862971  0.31941692  0.93135145    -0.08600
C1851       C  0.80698173  0.31037754  0.94478847     0.30300
C1852       C  0.80826235  0.31809306  0.97101772    -0.20500
C1853       C  0.84121956  0.33528476  0.98440163    -0.08600
C1854       C  0.87286691  0.34333052  0.97093966     0.30300
F1855       F  0.90518747  0.35899922  0.98299892    -0.19100
H1856       H  0.89628329  0.34384642  0.93423877     0.18700
H1857       H  0.78330273  0.31107079  0.98073590     0.18700
F1858       F  0.77506832  0.29581465  0.93220903    -0.19100
C1859       C  0.86556566  0.32549869  0.69244070    -0.20500
C1860       C  0.83350748  0.31943469  0.68089231    -0.08600
C1861       C  0.80741604  0.32089528  0.69609608     0.30300
C1862       C  0.81330764  0.32861026  0.72225652    -0.20500
C1863       C  0.84557448  0.33551399  0.73401943    -0.08600
C1864       C  0.87173278  0.33366473  0.71883196     0.30300
F1865       F  0.90308127  0.33967955  0.72935682    -0.19100
H1866       H  0.88643066  0.32548477  0.68080982     0.18700
H1867       H  0.79246125  0.32952301  0.73329763     0.18700
F1868       F  0.77636045  0.31558227  0.68543330    -0.19100
C1869       C  0.86870226  0.21545332  0.55946819    -0.20500
C1870       C  0.87881301  0.25012082  0.55086437    -0.08600
C1871       C  0.89987416  0.26281093  0.52817944     0.30300
C1872       C  0.91118770  0.24199633  0.51514253    -0.20500
C1873       C  0.90235355  0.20792634  0.52414932    -0.08600
C1874       C  0.88048772  0.19464355  0.54645189     0.30300
F1875       F  0.87114228  0.16193801  0.55614632    -0.19100
H1876       H  0.85229654  0.20470667  0.57660558     0.18700
H1877       H  0.93638010  0.25860359  0.00375231     0.18700
F1878       F  0.90979798  0.29559321  0.51830255    -0.19100
C1879       C  0.74440528  0.43921719  0.56266046    -0.20500
C1880       C  0.74380453  0.45678299  0.58526968    -0.08600
C1881       C  0.76339629  0.45626784  0.60672720     0.30300
C1882       C  0.78176286  0.43713677  0.60576553    -0.20500
C1883       C  0.78100171  0.41822624  0.58340951    -0.08600
C1884       C  0.76277289  0.42035535  0.56161479     0.30300
F1885       F  0.76196115  0.40362839  0.53931066    -0.19100
H1886       H  0.72993362  0.43951099  0.54572448     0.18700
H1887       H  0.79540909  0.43598696  0.62289832     0.18700
F1888       F  0.76301460  0.47231784  0.62906756    -0.19100
C1889       C  0.68056570  0.22243258  0.56532206    -0.20500
C1890       C  0.70142958  0.23421923  0.58780777    -0.08600
C1891       C  0.68408302  0.22759081  0.61181598     0.30300
C1892       C  0.64655015  0.21156870  0.61301417    -0.20500
C1893       C  0.62582890  0.20110682  0.59037298    -0.08600
C1894       C  0.64311496  0.20562979  0.56654193     0.30300
F1895       F  0.62409096  0.19642486  0.54426163    -0.19100
H1896       H  0.69349582  0.22775552  0.54661500     0.18700
H1897       H  0.63371054  0.20819598  0.63159405     0.18700
F1898       F  0.70351723  0.23922727  0.63385953    -0.19100
C1899       C  0.02288427  0.45688925  0.61572842    -0.20500
C1900       C  0.02427258  0.45919807  0.64282019    -0.08600
C1901       C  0.99197351  0.44553339  0.65664383     0.30300
C1902       C  0.95900800  0.42921864  0.64353781    -0.20500
C1903       C  0.95756162  0.42537546  0.61647311    -0.08600
C1904       C  0.99001548  0.43981475  0.60268597     0.30300
F1905       F  0.99006978  0.43690009  0.57665848    -0.19100
H1906       H  0.04742280  0.46702388  0.60458903     0.18700
H1907       H  0.93445423  0.41817773  0.65474503     0.18700
F1908       F  0.99224356  0.44778724  0.68272082    -0.19100
loop_ 
_geom_bond_atom_site_label_1 
_geom_bond_atom_site_label_2 
_geom_bond_distance 
_geom_bond_site_symmetry_2 
_ccdc_geom_bond_type 
Zn1           O5   1.909       .  S
Zn1           O6   2.033       .  S
Zn1          O10   1.987       .  S
Zn1          O17   1.991       .  S
Zn2           O5   1.923       .  S
Zn2           O7   1.983       .  S
Zn2           O9   2.035       .  S
Zn2          O13   1.996       .  S
Zn3           O5   1.962       .  S
Zn3           O8   2.060       .  S
Zn3          O11   2.079       .  S
Zn3          O14   2.097       .  S
Zn4           O5   1.936       .  S
Zn4          O12   1.988       .  S
Zn4          O15   2.051       .  S
Zn4          O16   2.045       .  S
O6           C18   1.276       .  A
O7           C19   1.272       .  A
O8           C20   1.280       .  A
O9           C18   1.275       .  A
O10          C20   1.272       .  A
O11          C19   1.282       .  A
O12          C21   1.270       .  A
O13          C22   1.272       .  A
O14          C21   1.282       .  A
O15          C22   1.280       .  A
O16          C23   1.280       .  A
O17          C23   1.273       .  A
C18         C929   1.492       .  S
C19         C906   1.477       .  S
C20         C936   1.478       .  S
C21         C916   1.503       .  S
C22         C949   1.474       .  S
C23        C1853   1.488   1_554  S
Zn24         O28   1.920       .  S
Zn24         O29   1.978       .  S
Zn24         O33   2.002       .  S
Zn24         O40   1.999       .  S
Zn25         O28   1.948       .  S
Zn25         O30   2.076       .  S
Zn25         O32   2.069       .  S
Zn25         O36   1.971       .  S
Zn26         O28   1.924       .  S
Zn26         O31   1.991       .  S
Zn26         O34   1.986       .  S
Zn26         O37   1.964       .  S
Zn27         O28   1.971       .  S
Zn27         O35   2.078       .  S
Zn27         O38   2.087       .  S
Zn27         O39   2.055       .  S
O29          C41   1.270       .  A
O30          C42   1.282       .  A
O31          C43   1.270       .  A
O32          C41   1.281       .  A
O33          C43   1.272       .  A
O34          C42   1.269       .  A
O35          C44   1.282       .  A
O36          C45   1.270       .  A
O37          C44   1.269       .  A
O38          C45   1.283       .  A
O39          C46   1.278       .  A
O40          C46   1.271       .  A
C41         C909   1.488       .  S
C42         C886   1.494       .  S
C43         C869   1.468       .  S
C44         C896   1.470       .  S
C45         C859   1.491       .  S
C46         C876   1.477       .  S
Zn47         O51   1.973       .  S
Zn47         O52   2.039       .  S
Zn47         O56   2.063       .  S
Zn47         O63   2.076       .  S
Zn48         O51   1.925       .  S
Zn48         O53   2.014       .  S
Zn48         O55   2.006       .  S
Zn48         O59   1.979       .  S
Zn49         O51   1.936       .  S
Zn49         O54   1.976       .  S
Zn49         O57   1.995       .  S
Zn49         O60   1.984       .  S
Zn50         O51   1.940       .  S
Zn50         O58   2.061       .  S
Zn50         O61   2.048       .  S
Zn50         O62   1.972       .  S
O52          C64   1.276       .  A
O53          C65   1.273       .  A
O54          C66   1.270       .  A
O55          C64   1.272       .  A
O56          C66   1.281       .  A
O57          C65   1.270       .  A
O58          C67   1.279       .  A
O59          C68   1.271       .  A
O60          C67   1.268       .  A
O61          C68   1.279       .  A
O62          C69   1.268       .  A
O63          C69   1.280       .  A
C64         C939   1.474       .  S
C65         C826   1.471       .  S
C66        C1760   1.476   1_554  S
C67         C846   1.476       .  S
C68         C816   1.475       .  S
C69         C836   1.476       .  S
Zn70         O74   1.906       .  S
Zn70         O75   2.022       .  S
Zn70         O79   1.997       .  S
Zn70         O86   1.994       .  S
Zn71         O74   1.910       .  S
Zn71         O76   1.972       .  S
Zn71         O78   2.009       .  S
Zn71         O82   1.991       .  S
Zn72         O74   1.954       .  S
Zn72         O77   2.065       .  S
Zn72         O80   2.075       .  S
Zn72         O83   2.084       .  S
Zn73         O74   1.932       .  S
Zn73         O81   1.985       .  S
Zn73         O84   2.059       .  S
Zn73         O85   2.045       .  S
O75          C87   1.276       .  A
O76          C88   1.271       .  A
O77          C89   1.280       .  A
O78          C87   1.272       .  A
O79          C89   1.273       .  A
O80          C88   1.282       .  A
O81          C90   1.271       .  A
O82          C91   1.271       .  A
O83          C90   1.283       .  A
O84          C91   1.280       .  A
O85          C92   1.280       .  A
O86          C92   1.273       .  A
C87         C776   1.483       .  S
C88         C819   1.483       .  S
C89         C879   1.479       .  S
C90         C789   1.493       .  S
C91         C799   1.483       .  S
C92         C809   1.481       .  S
Zn93         O97   1.955       .  S
Zn93         O98   2.046       .  S
Zn93        O102   1.977       .  S
Zn93        O109   2.048       .  S
Zn94         O97   1.912       .  S
Zn94         O99   1.985       .  S
Zn94        O101   1.961       .  S
Zn94        O105   1.996       .  S
Zn95         O97   1.973       .  S
Zn95        O100   2.090       .  S
Zn95        O103   2.072       .  S
Zn95        O106   2.080       .  S
Zn96         O97   1.928       .  S
Zn96        O104   1.975       .  S
Zn96        O107   2.013       .  S
Zn96        O108   1.988       .  S
O98         C110   1.276       .  A
O99         C111   1.270       .  A
O100        C112   1.283       .  A
O101        C110   1.269       .  A
O102        C112   1.271       .  A
O103        C111   1.279       .  A
O104        C113   1.270       .  A
O105        C114   1.271       .  A
O106        C113   1.284       .  A
O107        C114   1.273       .  A
O108        C115   1.270       .  A
O109        C115   1.279       .  A
C110       C1693   1.478   1_554  S
C111        C926   1.486       .  S
C112        C769   1.490       .  S
C113        C746   1.484       .  S
C114        C829   1.471       .  S
C115        C756   1.480       .  S
Zn116       O120   1.945       .  S
Zn116       O121   2.039       .  S
Zn116       O125   1.965       .  S
Zn116       O132   2.043       .  S
Zn117       O120   1.902       .  S
Zn117       O122   1.966       .  S
Zn117       O124   1.968       .  S
Zn117       O128   2.001       .  S
Zn118       O120   1.970       .  S
Zn118       O123   2.085       .  S
Zn118       O126   2.066       .  S
Zn118       O129   2.088       .  S
Zn119       O120   1.911       .  S
Zn119       O127   1.970       .  S
Zn119       O130   1.990       .  S
Zn119       O131   1.965       .  S
O121        C133   1.277       .  A
O122        C134   1.270       .  A
O123        C135   1.283       .  A
O124        C133   1.268       .  A
O125        C135   1.269       .  A
O126        C134   1.279       .  A
O127        C136   1.269       .  A
O128        C137   1.272       .  A
O129        C136   1.285       .  A
O130        C137   1.270       .  A
O131        C138   1.269       .  A
O132        C138   1.278       .  A
C133        C736   1.479       .  S
C134        C779   1.478       .  S
C135        C716   1.486       .  S
C136        C749   1.492       .  S
C137        C866   1.467       .  S
C138        C726   1.477       .  S
Zn139       O143   1.930       .  S
Zn139       O144   2.009       .  S
Zn139       O148   1.963       .  S
Zn139       O155   2.026       .  S
Zn140       O143   1.921       .  S
Zn140       O145   2.003       .  S
Zn140       O147   1.981       .  S
Zn140       O151   2.012       .  S
Zn141       O143   1.975       .  S
Zn141       O146   2.086       .  S
Zn141       O149   2.059       .  S
Zn141       O152   2.066       .  S
Zn142       O143   1.934       .  S
Zn142       O150   1.954       .  S
Zn142       O153   2.004       .  S
Zn142       O154   2.014       .  S
O144        C156   1.274       .  A
O145        C157   1.272       .  A
O146        C158   1.282       .  A
O147        C156   1.271       .  A
O148        C158   1.267       .  A
O149        C157   1.278       .  A
O150        C159   1.268       .  A
O151        C160   1.274       .  A
O152        C159   1.283       .  A
O153        C160   1.272       .  A
O154        C161   1.271       .  A
O155        C161   1.275       .  A
C156        C679   1.475       .  S
C157        C706   1.487       .  S
C158        C839   1.478       .  S
C159        C666   1.477       .  S
C160        C699   1.471       .  S
C161        C689   1.489       .  S
Zn162       O166   1.940       .  S
Zn162       O167   2.037       .  S
Zn162       O171   2.009       .  S
Zn162       O178   1.984       .  S
Zn163       O166   1.948       .  S
Zn163       O168   2.037       .  S
Zn163       O170   2.025       .  S
Zn163       O174   1.961       .  S
Zn164       O166   1.921       .  S
Zn164       O169   1.964       .  S
Zn164       O172   2.003       .  S
Zn164       O175   2.008       .  S
Zn165       O166   1.971       .  S
Zn165       O173   2.078       .  S
Zn165       O176   2.062       .  S
Zn165       O177   2.102       .  S
O167        C179   1.277       .  A
O168        C180   1.274       .  A
O169        C181   1.269       .  A
O170        C179   1.273       .  A
O171        C181   1.275       .  A
O172        C180   1.273       .  A
O173        C182   1.280       .  A
O174        C183   1.270       .  A
O175        C182   1.271       .  A
O176        C183   1.284       .  A
O177        C184   1.284       .  A
O178        C184   1.269       .  A
C179        C786   1.495       .  S
C180        C656   1.485       .  S
C181       C1630   1.471       .  S
C182        C649   1.484       .  S
C183        C669   1.482       .  S
C184        C636   1.484       .  S
Zn185       O189   1.910       .  S
Zn185       O190   1.964       .  S
Zn185       O194   1.958       .  S
Zn185       O201   2.003       .  S
Zn186       O189   1.981       .  S
Zn186       O191   2.090       .  S
Zn186       O193   2.071       .  S
Zn186       O197   2.069       .  S
Zn187       O189   1.949       .  S
Zn187       O192   2.041       .  S
Zn187       O195   1.986       .  S
Zn187       O198   2.059       .  S
Zn188       O189   1.927       .  S
Zn188       O196   1.978       .  S
Zn188       O199   1.959       .  S
Zn188       O200   2.004       .  S
O190        C202   1.268       .  A
O191        C203   1.283       .  A
O192        C204   1.277       .  A
O193        C202   1.279       .  A
O194        C204   1.268       .  A
O195        C203   1.270       .  A
O196        C205   1.270       .  A
O197        C206   1.283       .  A
O198        C205   1.280       .  A
O199        C206   1.267       .  A
O200        C207   1.270       .  A
O201        C207   1.270       .  A
C202        C616   1.482       .  S
C203        C629   1.484       .  S
C204        C596   1.477       .  S
C205        C946   1.488       .  S
C206        C606   1.484       .  S
C207        C696   1.470       .  S
Zn208       O212   1.920       .  S
Zn208       O213   2.005       .  S
Zn208       O217   1.983       .  S
Zn208       O224   2.008       .  S
Zn209       O212   1.976       .  S
Zn209       O214   2.105       .  S
Zn209       O216   2.087       .  S
Zn209       O220   2.080       .  S
Zn210       O212   1.933       .  S
Zn210       O215   2.011       .  S
Zn210       O218   1.957       .  S
Zn210       O221   2.027       .  S
Zn211       O212   1.933       .  S
Zn211       O219   2.017       .  S
Zn211       O222   1.952       .  S
Zn211       O223   2.000       .  S
O213        C225   1.273       .  A
O214        C226   1.285       .  A
O215        C227   1.274       .  A
O216        C225   1.281       .  A
O217        C227   1.271       .  A
O218        C226   1.267       .  A
O219        C228   1.271       .  A
O220        C229   1.285       .  A
O221        C228   1.275       .  A
O222        C229   1.268       .  A
O223        C230   1.272       .  A
O224        C230   1.273       .  A
C225        C646   1.493       .  S
C226        C889   1.486       .  S
C227        C599   1.473       .  S
C228        C586   1.491       .  S
C229       C1563   1.482       .  S
C230        C576   1.468       .  S
Zn231       O235   1.924       .  S
Zn231       O236   1.994       .  S
Zn231       O240   1.976       .  S
Zn231       O247   2.017       .  S
Zn232       O235   1.932       .  S
Zn232       O237   1.989       .  S
Zn232       O239   2.041       .  S
Zn232       O243   2.027       .  S
Zn233       O235   1.961       .  S
Zn233       O238   2.067       .  S
Zn233       O241   2.092       .  S
Zn233       O244   2.066       .  S
Zn234       O235   1.913       .  S
Zn234       O242   1.997       .  S
Zn234       O245   1.990       .  S
Zn234       O246   2.022       .  S
O236        C248   1.271       .  A
O237        C249   1.272       .  A
O238        C250   1.281       .  A
O239        C248   1.278       .  A
O240        C250   1.271       .  A
O241        C249   1.282       .  A
O242        C251   1.272       .  A
O243        C252   1.277       .  A
O244        C251   1.280       .  A
O245        C252   1.272       .  A
O246        C253   1.276       .  A
O247        C253   1.272       .  A
C248        C759   1.482       .  S
C249        C569   1.496       .  S
C250        C556   1.469       .  S
C251        C709   1.474       .  S
C252        C549   1.481       .  S
C253        C619   1.486       .  S
Zn254       O258   1.952       .  S
Zn254       O259   2.062       .  S
Zn254       O263   2.048       .  S
Zn254       O270   1.970       .  S
Zn255       O258   1.938       .  S
Zn255       O260   2.003       .  S
Zn255       O262   1.984       .  S
Zn255       O266   1.958       .  S
Zn256       O258   1.919       .  S
Zn256       O261   1.970       .  S
Zn256       O264   1.997       .  S
Zn256       O267   1.984       .  S
Zn257       O258   1.987       .  S
Zn257       O265   2.059       .  S
Zn257       O268   2.058       .  S
Zn257       O269   2.073       .  S
O259        C271   1.280       .  A
O260        C272   1.271       .  A
O261        C273   1.269       .  A
O262        C271   1.269       .  A
O263        C273   1.277       .  A
O264        C272   1.271       .  A
O265        C274   1.277       .  A
O266        C275   1.267       .  A
O267        C274   1.270       .  A
O268        C275   1.280       .  A
O269        C276   1.280       .  A
O270        C276   1.268       .  A
C271        C719   1.491       .  S
C272        C579   1.468       .  S
C273       C1513   1.477       .  S
C274        C659   1.484       .  S
C275        C546   1.465       .  S
C276        C539   1.470       .  S
Zn277      O1235   1.907       .  S
Zn277       O282   1.985       .  S
Zn277       O286   2.022       .  S
Zn277       O293   1.982   1_545  S
Zn278      O1235   1.933       .  S
Zn278       O283   2.046       .  S
Zn278       O285   2.044       .  S
Zn278       O289   1.990   1_545  S
Zn279       O281   1.953   1_554  S
Zn279       O284   2.062       .  S
Zn279       O287   2.015       .  S
Zn279       O290   1.985       .  S
Zn280       O281   1.970   1_564  S
Zn280       O288   2.063       .  S
Zn280       O291   2.098   1_554  S
Zn280       O292   2.049       .  S
O281      Zn1231   1.904       .  S
O281      Zn1232   1.925       .  S
O282        C294   1.272       .  A
O283       C1249   1.280       .  A
O284        C296   1.277   1_554  A
O285        C294   1.280       .  A
O286       C1250   1.274       .  A
O287        C295   1.274       .  A
O288        C297   1.282   1_565  A
O289        C298   1.269       .  A
O290        C297   1.272       .  A
O291       C1252   1.282       .  A
O292       C1253   1.278   1_554  A
O293        C299   1.273       .  A
C294        C496   1.477       .  S
C295       O1237   1.277   1_554  A
C295        C849   1.486       .  S
C296       O1240   1.273       .  A
C296        C526   1.495       .  S
C297        C506   1.473       .  S
C298       O1245   1.281       .  A
C298        C639   1.490       .  S
C299       O1246   1.278       .  A
C299        C516   1.480       .  S
Zn300       O304   1.940       .  S
Zn300       O305   1.975   1_545  S
Zn300       O309   2.051       .  S
Zn300       O316   2.050       .  S
Zn301       O304   1.967   1_565  S
Zn301       O306   2.064       .  S
Zn301       O308   2.069       .  S
Zn301       O312   2.062       .  S
Zn302       O304   1.920       .  S
Zn302       O307   1.999       .  S
Zn302       O310   1.978       .  S
Zn302       O313   2.015       .  S
Zn303       O304   1.909       .  S
Zn303       O311   2.028       .  S
Zn303       O314   1.991   1_545  S
Zn303       O315   1.995       .  S
O305        C317   1.270       .  A
O306        C318   1.280   1_565  A
O307        C319   1.272       .  A
O308        C317   1.280       .  A
O309        C319   1.280       .  A
O310        C318   1.271       .  A
O311        C320   1.277       .  A
O312        C321   1.279       .  A
O313        C320   1.273       .  A
O314        C321   1.272       .  A
O315        C322   1.272       .  A
O316        C322   1.279       .  A
C317        C686   1.485       .  S
C318        C499   1.474       .  S
C319        C796   1.486       .  S
C320        C486   1.484       .  S
C321        C476   1.485       .  S
C322        C509   1.483       .  S
Zn323      O1281   1.913       .  S
Zn323       O328   1.979       .  S
Zn323       O332   1.989       .  S
Zn323       O339   1.991   1_655  S
Zn324      O1281   1.938       .  S
Zn324       O329   2.046       .  S
Zn324       O331   2.038       .  S
Zn324       O335   1.962   1_655  S
Zn325       O327   1.958   1_554  S
Zn325       O330   2.051       .  S
Zn325       O333   2.039       .  S
Zn325       O336   1.959       .  S
Zn326       O327   1.993   1_454  S
Zn326       O334   2.052       .  S
Zn326       O337   2.091   1_554  S
Zn326       O338   2.071       .  S
O327      Zn1277   1.914       .  S
O327      Zn1278   1.937       .  S
O328        C340   1.270       .  A
O329       C1295   1.279       .  A
O330        C342   1.276   1_554  A
O331        C340   1.278       .  A
O332       C1296   1.271       .  A
O333        C341   1.274       .  A
O334        C343   1.281   1_455  A
O335        C344   1.268       .  A
O336        C343   1.270       .  A
O337       C1298   1.281       .  A
O338       C1299   1.278   1_554  A
O339        C345   1.271       .  A
C340        C446   1.475       .  S
C341       O1283   1.279   1_554  A
C341        C919   1.499       .  S
C342       O1286   1.272       .  A
C342        C466   1.484       .  S
C343        C459   1.466       .  S
C344       O1291   1.282       .  A
C344        C589   1.488       .  S
C345       O1292   1.279       .  A
C345        C529   1.492       .  S
Zn346       O350   1.929       .  S
Zn346       O351   2.034       .  S
Zn346       O355   2.022       .  S
Zn346       O362   1.995   1_655  S
Zn347       O350   1.939       .  S
Zn347       O352   2.026       .  S
Zn347       O354   2.016       .  S
Zn347       O358   1.973       .  S
Zn348       O350   1.908       .  S
Zn348       O353   1.978       .  S
Zn348       O356   2.009       .  S
Zn348       O359   1.974   1_655  S
Zn349       O350   1.969   1_455  S
Zn349       O357   2.068       .  S
Zn349       O360   2.064       .  S
Zn349       O361   2.078       .  S
O351        C363   1.279       .  A
O352        C364   1.274       .  A
O353        C365   1.269       .  A
O354        C363   1.272       .  A
O355        C365   1.276       .  A
O356        C364   1.274       .  A
O357        C366   1.279       .  A
O358        C367   1.271       .  A
O359        C366   1.270       .  A
O360        C367   1.282   1_455  A
O361        C368   1.281       .  A
O362        C368   1.271       .  A
C363        C856   1.491       .  S
C364        C436   1.483       .  S
C365        C456   1.470       .  S
C366        C489   1.480       .  S
C367        C449   1.470       .  S
C368        C626   1.482       .  S
Zn369      O1327   1.902       .  S
Zn369       O374   1.977       .  S
Zn369       O378   2.002       .  S
Zn369       O385   1.987       .  S
Zn370      O1327   1.937       .  S
Zn370       O375   2.066       .  S
Zn370       O377   2.051       .  S
Zn370       O381   1.985       .  S
Zn371       O373   1.928   1_554  S
Zn371       O376   2.025       .  S
Zn371       O379   2.019       .  S
Zn371       O382   1.964       .  S
Zn372       O373   1.969   1_554  S
Zn372       O380   2.066       .  S
Zn372       O383   2.072   1_554  S
Zn372       O384   2.055       .  S
O373      Zn1323   1.907       .  S
O373      Zn1324   1.929       .  S
O374        C386   1.270       .  A
O375       C1341   1.283       .  A
O376        C388   1.274   1_554  A
O377        C386   1.280       .  A
O378       C1342   1.273       .  A
O379        C387   1.274       .  A
O380        C389   1.282       .  A
O381        C390   1.270       .  A
O382        C389   1.270       .  A
O383       C1344   1.280       .  A
O384       C1345   1.277   1_554  A
O385        C391   1.272       .  A
C386        C416   1.478       .  S
C387       O1329   1.280   1_554  A
C387        C766   1.495       .  S
C388       O1332   1.274       .  A
C388        C519   1.476       .  S
C389        C426   1.476       .  S
C390       O1337   1.279       .  A
C390        C536   1.483       .  S
C391       O1338   1.277       .  A
C391        C469   1.481       .  S
Zn392       O396   1.905       .  S
Zn392       O397   2.017       .  S
Zn392       O401   1.978       .  S
Zn392       O408   1.981       .  S
Zn393       O396   1.930       .  S
Zn393       O398   1.972       .  S
Zn393       O400   2.025       .  S
Zn393       O404   1.989       .  S
Zn394       O396   1.966       .  S
Zn394       O399   2.057       .  S
Zn394       O402   2.074       .  S
Zn394       O405   2.084       .  S
Zn395       O396   1.936       .  S
Zn395       O403   1.992       .  S
Zn395       O406   2.028       .  S
Zn395       O407   2.035       .  S
O397        C409   1.273       .  A
O398        C410   1.269       .  A
O399        C411   1.280       .  A
O400        C409   1.272       .  A
O401        C411   1.273       .  A
O402        C410   1.281       .  A
O403        C412   1.271       .  A
O404        C413   1.271       .  A
O405        C412   1.280       .  A
O406        C413   1.278       .  A
O407        C414   1.276       .  A
O408        C414   1.271       .  A
C409        C479   1.488       .  S
C410        C419   1.476       .  S
C411        C439   1.483       .  S
C412        C566   1.488       .  S
C413        C729   1.472       .  S
C414        C429   1.468       .  S
C415        C416   1.406       .  A
C415        C420   1.404       .  A
C415        H422   1.083       .  S
C416        C417   1.408       .  A
C417        C418   1.394       .  A
C417        F424   1.358       .  S
C418        C419   1.404       .  A
C418        H423   1.084       .  S
C419        C420   1.407       .  A
C420        F421   1.357       .  S
C425        C426   1.406       .  A
C425        C430   1.391       .  A
C425        H432   1.083       .  S
C426        C427   1.407       .  A
C427        C428   1.403       .  A
C427        F434   1.357       .  S
C428        C429   1.405       .  A
C428        H433   1.083       .  S
C429        C430   1.401       .  A
C430        F431   1.358       .  S
C435        C436   1.409       .  A
C435        C440   1.404   1_545  A
C435        H442   1.083       .  S
C436        C437   1.406       .  A
C437        C438   1.392   1_545  A
C437        F444   1.358       .  S
C438        C439   1.406       .  A
C438        H443   1.084       .  S
C439        C440   1.408       .  A
C440        F441   1.357       .  S
C445        C446   1.404       .  A
C445        C450   1.393       .  A
C445        H452   1.084       .  S
C446        C447   1.408       .  A
C447        C448   1.402   1_655  A
C447        F454   1.357       .  S
C448        C449   1.403   1_455  A
C448        H453   1.083       .  S
C449        C450   1.405       .  A
C450        F451   1.358       .  S
C455        C456   1.409   1_455  A
C455        C460   1.397       .  A
C455        H462   1.083       .  S
C456        C457   1.401       .  A
C457        C458   1.393       .  A
C457        F464   1.358       .  S
C458        C459   1.407       .  A
C458        H463   1.084       .  S
C459        C460   1.399   1_655  A
C460        F461   1.357       .  S
C465        C466   1.408   1_554  A
C465        C470   1.407   1_545  A
C465        H472   1.083       .  S
C466       C1421   1.407       .  A
C467        C468   1.391   1_545  A
C467       C1420   1.408       .  A
C467        F474   1.358       .  S
C468        C469   1.403       .  A
C468        H473   1.084       .  S
C469       C1424   1.408       .  A
C470       C1423   1.408   1_554  A
C470        F471   1.357       .  S
C475        C476   1.405       .  A
C475        C480   1.405   1_455  A
C475        H482   1.083       .  S
C476        C477   1.409       .  A
C477        C478   1.395   1_455  A
C477        F484   1.358       .  S
C478        C479   1.404       .  A
C478        H483   1.083       .  S
C479        C480   1.412       .  A
C480        F481   1.357       .  S
C485        C486   1.403       .  A
C485        C490   1.395       .  A
C485        H492   1.083       .  S
C486        C487   1.413       .  A
C487        C488   1.403       .  A
C487        F494   1.357       .  S
C488        C489   1.402       .  A
C488        H493   1.083       .  S
C489        C490   1.409       .  A
C490        F491   1.358       .  S
C495        C496   1.403       .  A
C495        C500   1.394       .  A
C495        H502   1.084       .  S
C496        C497   1.408       .  A
C497        C498   1.404   1_545  A
C497        F504   1.357   1_545  S
C498        C499   1.405   1_565  A
C498        H503   1.083       .  S
C499        C500   1.405       .  A
C500        F501   1.358       .  S
C505        C506   1.408       .  A
C505        C510   1.401       .  A
C505        H512   1.084       .  S
C506        C507   1.399   1_545  A
C507        C508   1.399       .  A
C507        F514   1.357       .  S
C508        C509   1.411   1_565  A
C508        H513   1.083       .  S
C509        C510   1.405       .  A
C510        F511   1.357       .  S
C515        C516   1.405       .  A
C515        C520   1.391   1_455  A
C515        H522   1.083       .  S
C516       C1471   1.408       .  A
C517        C518   1.403   1_455  A
C517       C1470   1.407   1_554  A
C517        F524   1.358       .  S
C518        C519   1.406   1_554  A
C518        H523   1.083       .  S
C519       C1474   1.404       .  A
C520       C1473   1.405       .  A
C520        F521   1.358       .  S
C525        C526   1.406       .  A
C525        C530   1.393       .  A
C525        H532   1.083       .  S
C526       C1481   1.411   1_556  A
C527        C528   1.409       .  A
C527       C1480   1.413       .  A
C527        F534   1.357       .  S
C528        C529   1.407       .  A
C528        H533   1.083       .  S
C529       C1484   1.410       .  A
C530       C1483   1.411       .  A
C530        F531   1.358       .  S
C535        C536   1.401       .  A
C535        C540   1.401       .  A
C535       H1496   1.083       .  S
C536        C537   1.414       .  A
C537        C538   1.399       .  A
C537        F544   1.358       .  S
C538        C539   1.398       .  A
C538        H543   1.083       .  S
C539        C540   1.409       .  A
C540        F541   1.358       .  S
H542       C1489   1.083   1_554  S
C545        C546   1.404       .  A
C545        C550   1.396       .  A
C545        H552   1.084       .  S
C546        C547   1.399       .  A
C547        C548   1.398       .  A
C547        F554   1.357       .  S
C548        C549   1.411       .  A
C548        H553   1.083       .  S
C549        C550   1.407       .  A
C550        F551   1.357       .  S
C555        C556   1.404       .  A
C555        C560   1.404       .  A
C555        H562   1.084       .  S
C556        C557   1.401       .  A
C557        C558   1.393       .  A
C557        F564   1.358       .  S
C558        C559   1.408       .  A
C558        H563   1.084       .  S
C559       C1227   1.486   1_554  S
C559        C560   1.411       .  A
C560        F561   1.357       .  S
C565        C566   1.409       .  A
C565        C570   1.413       .  A
C565        H572   1.083       .  S
C566        C567   1.406       .  A
C567        C568   1.394       .  A
C567        F574   1.358       .  S
C568        C569   1.408       .  A
C568        H573   1.083       .  S
C569        C570   1.412       .  A
C570        F571   1.357       .  S
C575        C576   1.403       .  A
C575        C580   1.396       .  A
C575        H582   1.080       .  S
C576        C577   1.405       .  A
C577        C578   1.395       .  A
C577        F584   1.358       .  S
C578        C579   1.403       .  A
C578        H583   1.080       .  S
C579        C580   1.405       .  A
C580        F581   1.358       .  S
C585        C586   1.414       .  A
C585        C590   1.408       .  A
C585        H592   1.083       .  S
C586        C587   1.406       .  A
C587        C588   1.394       .  A
C587        F594   1.358       .  S
C588        C589   1.409       .  A
C588        H593   1.083       .  S
C589        C590   1.405       .  A
C590        F591   1.357       .  S
C595        C596   1.406       .  A
C595        C600   1.390       .  A
C595        H602   1.084       .  S
C596        C597   1.407       .  A
C597        C598   1.400       .  A
C597        F604   1.357       .  S
C598        C599   1.406       .  A
C598        H603   1.084       .  S
C599        C600   1.405       .  A
C600        F601   1.358       .  S
C605        C606   1.398       .  A
C605        C610   1.395       .  A
C605        H612   1.083       .  S
C606        C607   1.418       .  A
C607        C608   1.400       .  A
C607        F614   1.358       .  S
C608        C609   1.399       .  A
C608        H613   1.083       .  S
C609       C1183   1.482   1_554  S
C609        C610   1.416       .  A
C610        F611   1.358       .  S
C615        C616   1.404       .  A
C615        C620   1.406       .  A
C615        H622   1.083       .  S
C616        C617   1.409       .  A
C617        C618   1.392       .  A
C617        F624   1.358       .  S
C618        C619   1.402       .  A
C618        H623   1.083       .  S
C619        C620   1.413       .  A
C620        F621   1.357       .  S
C625        C626   1.410       .  A
C625        C630   1.404       .  A
C625        H632   1.084       .  S
C626        C627   1.402       .  A
C627        C628   1.402       .  A
C627        F634   1.357       .  S
C628        C629   1.411       .  A
C628        H633   1.084       .  S
C629        C630   1.403       .  A
C630        F631   1.357       .  S
C635        C636   1.410       .  A
C635        C640   1.406       .  A
C635        H642   1.084       .  S
C636        C637   1.402       .  A
C637        C638   1.404       .  A
C637        F644   1.357       .  S
C638        C639   1.412       .  A
C638        H643   1.084       .  S
C639        C640   1.404       .  A
C640        F641   1.357       .  S
C645        C646   1.409       .  A
C645        C650   1.401       .  A
C645        H652   1.083       .  S
C646        C647   1.409       .  A
C647        C648   1.408       .  A
C647        F654   1.357       .  S
C648        C649   1.408       .  A
C648        H653   1.083       .  S
C649        C650   1.403       .  A
C650        F651   1.357       .  S
C655        C656   1.404       .  A
C655        C660   1.392       .  A
C655        H662   1.083       .  S
C656        C657   1.411       .  A
C657        C658   1.406       .  A
C657        F664   1.357       .  S
C658        C659   1.406       .  A
C658        H663   1.083       .  S
C659        C660   1.409       .  A
C660        F661   1.358       .  S
C665        C666   1.397       .  A
C665        C670   1.396       .  A
C665        H672   1.083       .  S
C666        C667   1.414       .  A
C667        C668   1.396       .  A
C667        F674   1.358       .  S
C668        C669   1.400       .  A
C668        H673   1.083       .  S
C669        C670   1.417       .  A
C670        F671   1.358       .  S
C675        C676   1.404       .  A
C675        C680   1.398       .  A
C675        H682   1.083       .  S
C676       C1135   1.471   1_554  S
C676        C677   1.405       .  A
C677        C678   1.390       .  A
C677        F684   1.358       .  S
C678        C679   1.404       .  A
C678        H683   1.083       .  S
C679        C680   1.409       .  A
C680        F681   1.357       .  S
C685        C686   1.408       .  A
C685        C690   1.394       .  A
C685        H692   1.083       .  S
C686        C687   1.405       .  A
C687        C688   1.406       .  A
C687        F694   1.357       .  S
C688        C689   1.413       .  A
C688        H693   1.083       .  S
C689        C690   1.406       .  A
C690        F691   1.358       .  S
C695        C696   1.402       .  A
C695        C700   1.397       .  A
C695        H702   1.083       .  S
C696        C697   1.406       .  A
C697        C698   1.396       .  A
C697        F704   1.358       .  S
C698        C699   1.403       .  A
C698        H703   1.083       .  S
C699        C700   1.407       .  A
C700        F701   1.358       .  S
C705        C706   1.406       .  A
C705        C710   1.404       .  A
C705        H712   1.083       .  S
C706        C707   1.411       .  A
C707        C708   1.399       .  A
C707        F714   1.358       .  S
C708        C709   1.400       .  A
C708        H713   1.084       .  S
C709        C710   1.406       .  A
C710        F711   1.357       .  S
C715        C716   1.411       .  A
C715        C720   1.398       .  A
C715        H722   1.084       .  S
C716        C717   1.402       .  A
C717        C718   1.404       .  A
C717        F724   1.357       .  S
C718        C719   1.415       .  A
C718        H723   1.083       .  S
C719        C720   1.404       .  A
C720        F721   1.357       .  S
C725        C726   1.410       .  A
C725        C730   1.393       .  A
C725        H732   1.083       .  S
C726        C727   1.404       .  A
C727        C728   1.400       .  A
C727        F734   1.357       .  S
C728        C729   1.409       .  A
C728        H733   1.084       .  S
C729        C730   1.400       .  A
C730        F731   1.358       .  S
C735        C736   1.406       .  A
C735        C740   1.403       .  A
C735        H742   1.083       .  S
C736        C737   1.408       .  A
C737        C738   1.391       .  A
C737        F744   1.358       .  S
C738        C739   1.404       .  A
C738        H743   1.083       .  S
C739       C1064   1.479       .  S
C739        C740   1.408       .  A
C740        F741   1.357       .  S
C745        C746   1.398       .  A
C745        C750   1.400       .  A
C745        H752   1.083       .  S
C746        C747   1.414       .  A
C747        C748   1.402       .  A
C747        F754   1.358       .  S
C748        C749   1.402       .  A
C748        H753   1.083       .  S
C749        C750   1.419       .  A
C750        F751   1.358       .  S
C755        C756   1.409       .  A
C755        C760   1.398       .  A
C755        H762   1.084       .  S
C756        C757   1.402       .  A
C757        C758   1.399       .  A
C757        F764   1.357       .  S
C758        C759   1.410       .  A
C758        H763   1.084       .  S
C759        C760   1.404       .  A
C760        F761   1.358       .  S
C765        C766   1.415       .  A
C765        C770   1.409       .  A
C765        H772   1.083       .  S
C766        C767   1.406       .  A
C767        C768   1.396       .  A
C767        F774   1.358   1_554  S
C768        C769   1.409       .  A
C768        H773   1.083       .  S
C769        C770   1.404       .  A
C770        F771   1.357       .  S
C775        C776   1.411       .  A
C775        C780   1.404       .  A
C775        H782   1.084       .  S
C776        C777   1.405       .  A
C777        C778   1.392       .  A
C777        F784   1.358       .  S
C778        C779   1.405       .  A
C778        H783   1.084       .  S
C779        C780   1.405       .  A
C780        F781   1.357       .  S
C785        C786   1.403       .  A
C785        C790   1.397   1_565  A
C785        H792   1.083       .  S
C786        C787   1.415       .  A
C787        C788   1.407   1_565  A
C787        F794   1.357       .  S
C788        C789   1.404       .  A
C788        H793   1.083       .  S
C789        C790   1.414       .  A
C790        F791   1.358       .  S
C795        C796   1.402       .  A
C795        C800   1.400       .  A
C795        H802   1.083       .  S
C796        C797   1.415       .  A
C797        C798   1.401       .  A
C797        F804   1.358       .  S
C798        C799   1.401       .  A
C798        H803   1.083       .  S
C799        C800   1.413       .  A
C800        F801   1.358       .  S
C805        C806   1.407       .  A
C805        C810   1.398       .  A
C805        H812   1.084       .  S
C806       C1020   1.474       .  S
C806        C807   1.401       .  A
C807        C808   1.399       .  A
C807        F814   1.357       .  S
C808        C809   1.411       .  A
C808        H813   1.083       .  S
C809        C810   1.404       .  A
C810        F811   1.357       .  S
C815        C816   1.406       .  A
C815        C820   1.406       .  A
C815        H822   1.083       .  S
C816        C817   1.403       .  A
C817        C818   1.392       .  A
C817        F824   1.358       .  S
C818        C819   1.407       .  A
C818        H823   1.083       .  S
C819        C820   1.409       .  A
C820        F821   1.357       .  S
C825        C826   1.404       .  A
C825        C830   1.396       .  A
C825        H832   1.084       .  S
C826        C827   1.405       .  A
C827        C828   1.396       .  A
C827        F834   1.357       .  S
C828        C829   1.404       .  A
C828        H833   1.084       .  S
C829        C830   1.407       .  A
C830        F831   1.358       .  S
C835        C836   1.398       .  A
C835        C840   1.400   1_545  A
C835        H842   1.083       .  S
C836        C837   1.412       .  A
C837        C838   1.402   1_545  A
C837        F844   1.358       .  S
C838        C839   1.399       .  A
C838        H843   1.083       .  S
C839        C840   1.413       .  A
C840        F841   1.358       .  S
C845        C846   1.402       .  A
C845        C850   1.399       .  A
C845        H852   1.084       .  S
C846        C847   1.407       .  A
C847        C848   1.402       .  A
C847        F854   1.357       .  S
C848        C849   1.407       .  A
C848        H853   1.083       .  S
C849        C850   1.411       .  A
C850        F851   1.357       .  S
C855        C856   1.401       .  A
C855        C860   1.393       .  A
C855        H862   1.083       .  S
C856        C857   1.416       .  A
C857        C858   1.408       .  A
C857        F864   1.357       .  S
C858        C859   1.404       .  A
C858        H863   1.083       .  S
C859        C860   1.414       .  A
C860        F861   1.358       .  S
C865        C866   1.403       .  A
C865        C870   1.393       .  A
C865        H872   1.084       .  S
C866        C867   1.404       .  A
C867        C868   1.394       .  A
C867        F874   1.358       .  S
C868        C869   1.404       .  A
C868        H873   1.083       .  S
C869        C870   1.405       .  A
C870        F871   1.358       .  S
C875        C876   1.406       .  A
C875        C880   1.401       .  A
C875        H882   1.083       .  S
C876        C877   1.404       .  A
C877        C878   1.401       .  A
C877        F884   1.358       .  S
C878        C879   1.407       .  A
C878        H883   1.084       .  S
C879        C880   1.405       .  A
C880        F881   1.357       .  S
C885        C886   1.417       .  A
C885        C890   1.406   1_655  A
C885        H892   1.083       .  S
C886        C887   1.404   1_655  A
C887        C888   1.399       .  A
C887        F894   1.357       .  S
C888        C889   1.411       .  A
C888        H893   1.084       .  S
C889        C890   1.401       .  A
C890        F891   1.357       .  S
C895        C896   1.404       .  A
C895        C900   1.399       .  A
C895        H902   1.084       .  S
C896        C897   1.401       .  A
C897        C898   1.402       .  A
C897        F904   1.358       .  S
C898        C899   1.413       .  A
C898        H903   1.083       .  S
C899        C977   1.489       .  S
C899        C900   1.407       .  A
C900        F901   1.357       .  S
C905        C906   1.406       .  A
C905        C910   1.407       .  A
C905        H912   1.083       .  S
C906        C907   1.404       .  A
C907        C908   1.395       .  A
C907        F914   1.358       .  S
C908        C909   1.407       .  A
C908        H913   1.083       .  S
C909        C910   1.410       .  A
C910        F911   1.356       .  S
C915        C916   1.409       .  A
C915        C920   1.413       .  A
C915        H922   1.083       .  S
C916        C917   1.416       .  A
C917        C918   1.397       .  A
C917        F924   1.358       .  S
C918        C919   1.403       .  A
C918       H1877   1.083       .  S
C919        C920   1.415       .  A
C920        F921   1.357       .  S
H923       C1872   1.083       .  S
C925        C926   1.406       .  A
C925        C930   1.398       .  A
C925        H932   1.083       .  S
C926        C927   1.406       .  A
C927        C928   1.406       .  A
C927        F934   1.357       .  S
C928        C929   1.411       .  A
C928        H933   1.082       .  S
C929        C930   1.408       .  A
C930        F931   1.358       .  S
C935        C936   1.407       .  A
C935        C940   1.398       .  A
C935        H942   1.084       .  S
C936        C937   1.405       .  A
C937        C938   1.401       .  A
C937        F944   1.357       .  S
C938        C939   1.406       .  A
C938        H943   1.084       .  S
C939        C940   1.403       .  A
C940        F941   1.358       .  S
C945        C946   1.414       .  A
C945        C950   1.398   1_455  A
C945        H952   1.083       .  S
C946        C947   1.407   1_455  A
C947        C948   1.401       .  A
C947        F954   1.357       .  S
C948        C949   1.407       .  A
C948        H953   1.084       .  S
C949        C950   1.398       .  A
C950        F951   1.357       .  S
Zn955       O959   1.912       .  S
Zn955       O960   2.036       .  S
Zn955       O964   1.986       .  S
Zn955       O971   2.002       .  S
Zn956       O959   1.925       .  S
Zn956       O961   1.980       .  S
Zn956       O963   2.035       .  S
Zn956       O967   2.005       .  S
Zn957       O959   1.962       .  S
Zn957       O962   2.065       .  S
Zn957       O965   2.069       .  S
Zn957       O968   2.095       .  S
Zn958       O959   1.932       .  S
Zn958       O966   1.993       .  S
Zn958       O969   2.055       .  S
Zn958       O970   2.044       .  S
O960        C972   1.277       .  A
O961        C973   1.272       .  A
O962        C974   1.280       .  A
O963        C972   1.275       .  A
O964        C974   1.272       .  A
O965        C973   1.281       .  A
O966        C975   1.271       .  A
O967        C976   1.273       .  A
O968        C975   1.283       .  A
O969        C976   1.281       .  A
O970        C977   1.280       .  A
O971        C977   1.274       .  A
C972       C1883   1.494       .  S
C973       C1860   1.472       .  S
C974       C1890   1.475       .  S
C975       C1870   1.501       .  S
C976       C1903   1.488       .  S
Zn978       O982   1.913       .  S
Zn978       O983   1.973       .  S
Zn978       O987   1.997       .  S
Zn978       O994   1.993       .  S
Zn979       O982   1.946       .  S
Zn979       O984   2.058       .  S
Zn979       O986   2.060       .  S
Zn979       O990   1.970       .  S
Zn980       O982   1.928       .  S
Zn980       O985   2.000       .  S
Zn980       O988   1.996       .  S
Zn980       O991   1.972       .  S
Zn981       O982   1.970       .  S
Zn981       O989   2.067       .  S
Zn981       O992   2.071       .  S
Zn981       O993   2.060       .  S
O983        C995   1.270       .  A
O984        C996   1.281       .  A
O985        C997   1.272       .  A
O986        C995   1.279       .  A
O987        C997   1.272       .  A
O988        C996   1.270       .  A
O989        C998   1.281       .  A
O990        C999   1.270       .  A
O991        C998   1.269       .  A
O992        C999   1.281       .  A
O993       C1000   1.278       .  A
O994       C1000   1.271       .  A
C995       C1863   1.487       .  S
C996       C1840   1.492       .  S
C997       C1823   1.471       .  S
C998       C1850   1.466       .  S
C999       C1813   1.482       .  S
C1000      C1830   1.486       .  S
Zn1001     O1005   1.967       .  S
Zn1001     O1006   2.032       .  S
Zn1001     O1010   2.061       .  S
Zn1001     O1017   2.067       .  S
Zn1002     O1005   1.927       .  S
Zn1002     O1007   2.012       .  S
Zn1002     O1009   2.018       .  S
Zn1002     O1013   1.976       .  S
Zn1003     O1005   1.932       .  S
Zn1003     O1008   1.974       .  S
Zn1003     O1011   1.990       .  S
Zn1003     O1014   1.978       .  S
Zn1004     O1005   1.943       .  S
Zn1004     O1012   2.063       .  S
Zn1004     O1015   2.042       .  S
Zn1004     O1016   1.969       .  S
O1006      C1018   1.275       .  A
O1007      C1019   1.273       .  A
O1008      C1020   1.270       .  A
O1009      C1018   1.274       .  A
O1010      C1020   1.281       .  A
O1011      C1019   1.270       .  A
O1012      C1021   1.279       .  A
O1013      C1022   1.271       .  A
O1014      C1021   1.268       .  A
O1015      C1022   1.278       .  A
O1016      C1023   1.268       .  A
O1017      C1023   1.279       .  A
C1018      C1893   1.479       .  S
C1019      C1780   1.471       .  S
C1021      C1800   1.478       .  S
C1022      C1770   1.470       .  S
C1023      C1790   1.473       .  S
Zn1024     O1028   1.899       .  S
Zn1024     O1029   2.016       .  S
Zn1024     O1033   2.008       .  S
Zn1024     O1040   1.992       .  S
Zn1025     O1028   1.908       .  S
Zn1025     O1030   1.972       .  S
Zn1025     O1032   2.018       .  S
Zn1025     O1036   2.001       .  S
Zn1026     O1028   1.944       .  S
Zn1026     O1031   2.060       .  S
Zn1026     O1034   2.066       .  S
Zn1026     O1037   2.082       .  S
Zn1027     O1028   1.926       .  S
Zn1027     O1035   1.990       .  S
Zn1027     O1038   2.070       .  S
Zn1027     O1039   2.045       .  S
O1029      C1041   1.276       .  A
O1030      C1042   1.272       .  A
O1031      C1043   1.279       .  A
O1032      C1041   1.274       .  A
O1033      C1043   1.273       .  A
O1034      C1042   1.281       .  A
O1035      C1044   1.272       .  A
O1036      C1045   1.271       .  A
O1037      C1044   1.283       .  A
O1038      C1045   1.281       .  A
O1039      C1046   1.281       .  A
O1040      C1046   1.274       .  A
C1041      C1730   1.486       .  S
C1042      C1773   1.483       .  S
C1043      C1833   1.476       .  S
C1044      C1743   1.491       .  S
C1045      C1753   1.480       .  S
C1046      C1763   1.481       .  S
Zn1047     O1051   1.952       .  S
Zn1047     O1052   2.040       .  S
Zn1047     O1056   1.969       .  S
Zn1047     O1063   2.056       .  S
Zn1048     O1051   1.914       .  S
Zn1048     O1053   1.987       .  S
Zn1048     O1055   1.968       .  S
Zn1048     O1059   2.001       .  S
Zn1049     O1051   1.979       .  S
Zn1049     O1054   2.101       .  S
Zn1049     O1057   2.083       .  S
Zn1049     O1060   2.090       .  S
Zn1050     O1051   1.922       .  S
Zn1050     O1058   1.954       .  S
Zn1050     O1061   1.997       .  S
Zn1050     O1062   1.981       .  S
O1052      C1064   1.277       .  A
O1053      C1065   1.271       .  A
O1054      C1066   1.285       .  A
O1055      C1064   1.269       .  A
O1056      C1066   1.270       .  A
O1057      C1065   1.281       .  A
O1058      C1067   1.267       .  A
O1059      C1068   1.272       .  A
O1060      C1067   1.285       .  A
O1061      C1068   1.270       .  A
O1062      C1069   1.269       .  A
O1063      C1069   1.279       .  A
C1065      C1880   1.488       .  S
C1066      C1723   1.488       .  S
C1067      C1700   1.485       .  S
C1068      C1783   1.465       .  S
C1069      C1710   1.482       .  S
Zn1070     O1074   1.946       .  S
Zn1070     O1075   2.047       .  S
Zn1070     O1079   1.974       .  S
Zn1070     O1086   2.048       .  S
Zn1071     O1074   1.894       .  S
Zn1071     O1076   1.961       .  S
Zn1071     O1078   1.956       .  S
Zn1071     O1082   2.012       .  S
Zn1072     O1074   1.967       .  S
Zn1072     O1077   2.081       .  S
Zn1072     O1080   2.070       .  S
Zn1072     O1083   2.088       .  S
Zn1073     O1074   1.907       .  S
Zn1073     O1081   1.954       .  S
Zn1073     O1084   1.984       .  S
Zn1073     O1085   1.959       .  S
O1075      C1087   1.278       .  A
O1076      C1088   1.270       .  A
O1077      C1089   1.282       .  A
O1078      C1087   1.268       .  A
O1079      C1089   1.270       .  A
O1080      C1088   1.280       .  A
O1081      C1090   1.267       .  A
O1082      C1091   1.272       .  A
O1083      C1090   1.284       .  A
O1084      C1091   1.268       .  A
O1085      C1092   1.267       .  A
O1086      C1092   1.279       .  A
C1087      C1690   1.480       .  S
C1088      C1733   1.483       .  S
C1089      C1670   1.489       .  S
C1090      C1703   1.484       .  S
C1091      C1820   1.468       .  S
C1092      C1680   1.471       .  S
Zn1093     O1097   1.928       .  S
Zn1093     O1098   2.000       .  S
Zn1093     O1102   1.965       .  S
Zn1093     O1109   2.025       .  S
Zn1094     O1097   1.921       .  S
Zn1094     O1099   2.000       .  S
Zn1094     O1101   1.966       .  S
Zn1094     O1105   2.003       .  S
Zn1095     O1097   1.970       .  S
Zn1095     O1100   2.076       .  S
Zn1095     O1103   2.053       .  S
Zn1095     O1106   2.049       .  S
Zn1096     O1097   1.939       .  S
Zn1096     O1104   1.961       .  S
Zn1096     O1107   2.014       .  S
Zn1096     O1108   2.015       .  S
O1098      C1110   1.273       .  A
O1099      C1111   1.271       .  A
O1100      C1112   1.280       .  A
O1101      C1110   1.269       .  A
O1102      C1112   1.268       .  A
O1103      C1111   1.277       .  A
O1104      C1113   1.270       .  A
O1105      C1114   1.273       .  A
O1106      C1113   1.281       .  A
O1107      C1114   1.273       .  A
O1108      C1115   1.272       .  A
O1109      C1115   1.275       .  A
C1110      C1633   1.462       .  S
C1111      C1660   1.479       .  S
C1112      C1793   1.476       .  S
C1113      C1620   1.470       .  S
C1114      C1653   1.473       .  S
C1115      C1643   1.490       .  S
Zn1116     O1120   1.948       .  S
Zn1116     O1121   2.048       .  S
Zn1116     O1125   2.018       .  S
Zn1116     O1132   1.988       .  S
Zn1117     O1120   1.950       .  S
Zn1117     O1122   2.036       .  S
Zn1117     O1124   2.024       .  S
Zn1117     O1128   1.963       .  S
Zn1118     O1120   1.925       .  S
Zn1118     O1123   1.977       .  S
Zn1118     O1126   2.005       .  S
Zn1118     O1129   2.015       .  S
Zn1119     O1120   1.974       .  S
Zn1119     O1127   2.079       .  S
Zn1119     O1130   2.056       .  S
Zn1119     O1131   2.092       .  S
O1121      C1133   1.278       .  A
O1122      C1134   1.274       .  A
O1123      C1135   1.271       .  A
O1124      C1133   1.273       .  A
O1125      C1135   1.275       .  A
O1126      C1134   1.273       .  A
O1127      C1136   1.280       .  A
O1128      C1137   1.270       .  A
O1129      C1136   1.272       .  A
O1130      C1137   1.282       .  A
O1131      C1138   1.282       .  A
O1132      C1138   1.270       .  A
C1133      C1740   1.496       .  S
C1134      C1610   1.486       .  S
C1136      C1603   1.487       .  S
C1137      C1623   1.482       .  S
C1138      C1590   1.481       .  S
Zn1139     O1143   1.916       .  S
Zn1139     O1144   1.975       .  S
Zn1139     O1148   1.956       .  S
Zn1139     O1155   2.004       .  S
Zn1140     O1143   1.985       .  S
Zn1140     O1145   2.093       .  S
Zn1140     O1147   2.088       .  S
Zn1140     O1151   2.075       .  S
Zn1141     O1143   1.958       .  S
Zn1141     O1146   2.048       .  S
Zn1141     O1149   1.987       .  S
Zn1141     O1152   2.068       .  S
Zn1142     O1143   1.928       .  S
Zn1142     O1150   1.985       .  S
Zn1142     O1153   1.950       .  S
Zn1142     O1154   2.007       .  S
O1144      C1156   1.269       .  A
O1145      C1157   1.283       .  A
O1146      C1158   1.278       .  A
O1147      C1156   1.281       .  A
O1148      C1158   1.268       .  A
O1149      C1157   1.271       .  A
O1150      C1159   1.270       .  A
O1151      C1160   1.283       .  A
O1152      C1159   1.280       .  A
O1153      C1160   1.267       .  A
O1154      C1161   1.271       .  A
O1155      C1161   1.271       .  A
C1156      C1570   1.487       .  S
C1157      C1583   1.487       .  S
C1158      C1550   1.479       .  S
C1159      C1900   1.484       .  S
C1160      C1560   1.481       .  S
C1161      C1650   1.469       .  S
Zn1162     O1166   1.925       .  S
Zn1162     O1167   2.018       .  S
Zn1162     O1171   1.986       .  S
Zn1162     O1178   2.012       .  S
Zn1163     O1166   1.981       .  S
Zn1163     O1168   2.101       .  S
Zn1163     O1170   2.083       .  S
Zn1163     O1174   2.081       .  S
Zn1164     O1166   1.938       .  S
Zn1164     O1169   2.015       .  S
Zn1164     O1172   1.949       .  S
Zn1164     O1175   2.034       .  S
Zn1165     O1166   1.936       .  S
Zn1165     O1173   2.023       .  S
Zn1165     O1176   1.955       .  S
Zn1165     O1177   2.007       .  S
O1167      C1179   1.274       .  A
O1168      C1180   1.283       .  A
O1169      C1181   1.275       .  A
O1170      C1179   1.281       .  A
O1171      C1181   1.271       .  A
O1172      C1180   1.267       .  A
O1173      C1182   1.271       .  A
O1174      C1183   1.285       .  A
O1175      C1182   1.276       .  A
O1176      C1183   1.269       .  A
O1177      C1184   1.273       .  A
O1178      C1184   1.275       .  A
C1179      C1600   1.494       .  S
C1180      C1843   1.488       .  S
C1181      C1553   1.475       .  S
C1182      C1540   1.494       .  S
C1184      C1530   1.470       .  S
Zn1185     O1189   1.923       .  S
Zn1185     O1190   1.993       .  S
Zn1185     O1194   1.972       .  S
Zn1185     O1201   2.020       .  S
Zn1186     O1189   1.935       .  S
Zn1186     O1191   2.001       .  S
Zn1186     O1193   2.048       .  S
Zn1186     O1197   2.020       .  S
Zn1187     O1189   1.960       .  S
Zn1187     O1192   2.067       .  S
Zn1187     O1195   2.084       .  S
Zn1187     O1198   2.064       .  S
Zn1188     O1189   1.917       .  S
Zn1188     O1196   2.001       .  S
Zn1188     O1199   1.996       .  S
Zn1188     O1200   2.046       .  S
O1190      C1202   1.271       .  A
O1191      C1203   1.271       .  A
O1192      C1204   1.281       .  A
O1193      C1202   1.279       .  A
O1194      C1204   1.271       .  A
O1195      C1203   1.281       .  A
O1196      C1205   1.274       .  A
O1197      C1206   1.277       .  A
O1198      C1205   1.280       .  A
O1199      C1206   1.273       .  A
O1200      C1207   1.278       .  A
O1201      C1207   1.273       .  A
C1202      C1713   1.480       .  S
C1203      C1523   1.482       .  S
C1204      C1510   1.476       .  S
C1205      C1663   1.478       .  S
C1206      C1503   1.479       .  S
C1207      C1573   1.491       .  S
Zn1208     O1212   1.947       .  S
Zn1208     O1213   2.054       .  S
Zn1208     O1217   2.043       .  S
Zn1208     O1224   1.970       .  S
Zn1209     O1212   1.936       .  S
Zn1209     O1214   2.005       .  S
Zn1209     O1216   1.992       .  S
Zn1209     O1220   1.966       .  S
Zn1210     O1212   1.919       .  S
Zn1210     O1215   1.983       .  S
Zn1210     O1218   2.010       .  S
Zn1210     O1221   1.992       .  S
Zn1211     O1212   1.984       .  S
Zn1211     O1219   2.055       .  S
Zn1211     O1222   2.053       .  S
Zn1211     O1223   2.071       .  S
O1213      C1225   1.279       .  A
O1214      C1226   1.272       .  A
O1215      C1227   1.271       .  A
O1216      C1225   1.270       .  A
O1217      C1227   1.277       .  A
O1218      C1226   1.273       .  A
O1219      C1228   1.277       .  A
O1220      C1229   1.269       .  A
O1221      C1228   1.272       .  A
O1222      C1229   1.279       .  A
O1223      C1230   1.280       .  A
O1224      C1230   1.268       .  A
C1225      C1673   1.492       .  S
C1226      C1533   1.472       .  S
C1228      C1613   1.484       .  S
C1229      C1500   1.466       .  S
C1230      C1493   1.470       .  S
Zn1231     O1236   1.983       .  S
Zn1231     O1240   2.000       .  S
Zn1231     O1247   1.991   1_545  S
Zn1232     O1237   2.030       .  S
Zn1232     O1239   2.032       .  S
Zn1232     O1243   1.978   1_545  S
Zn1233     O1235   1.943       .  S
Zn1233     O1238   2.043       .  S
Zn1233     O1241   2.002       .  S
Zn1233     O1244   1.979       .  S
Zn1234     O1235   1.977   1_565  S
Zn1234     O1242   2.072       .  S
Zn1234     O1245   2.091       .  S
Zn1234     O1246   2.054       .  S
O1236      C1248   1.272       .  A
O1238      C1250   1.274       .  A
O1239      C1248   1.278       .  A
O1241      C1249   1.273       .  A
O1242      C1251   1.282       .  A
O1243      C1252   1.268       .  A
O1244      C1251   1.271   1_545  A
O1247      C1253   1.272       .  A
C1248      C1450   1.467       .  S
C1249      C1803   1.476       .  S
C1250      C1480   1.493       .  S
C1251      C1460   1.472       .  S
C1252      C1593   1.490       .  S
C1253      C1470   1.479       .  S
Zn1254     O1258   1.946       .  S
Zn1254     O1259   1.965   1_545  S
Zn1254     O1263   2.059       .  S
Zn1254     O1270   2.047       .  S
Zn1255     O1258   1.977   1_565  S
Zn1255     O1260   2.064       .  S
Zn1255     O1262   2.080       .  S
Zn1255     O1266   2.069       .  S
Zn1256     O1258   1.933       .  S
Zn1256     O1261   2.007       .  S
Zn1256     O1264   1.970       .  S
Zn1256     O1267   2.031       .  S
Zn1257     O1258   1.911       .  S
Zn1257     O1265   2.013       .  S
Zn1257     O1268   1.994   1_545  S
Zn1257     O1269   1.987       .  S
O1259      C1271   1.268       .  A
O1260      C1272   1.282   1_565  A
O1261      C1273   1.272       .  A
O1262      C1271   1.281       .  A
O1263      C1273   1.280       .  A
O1264      C1272   1.271       .  A
O1265      C1274   1.275       .  A
O1266      C1275   1.279       .  A
O1267      C1274   1.274       .  A
O1268      C1275   1.272       .  A
O1269      C1276   1.272       .  A
O1270      C1276   1.279       .  A
C1271      C1640   1.489       .  S
C1272      C1453   1.477       .  S
C1273      C1750   1.496       .  S
C1274      C1440   1.486       .  S
C1275      C1430   1.486       .  S
C1276      C1463   1.483       .  S
Zn1277     O1282   1.986       .  S
Zn1277     O1286   1.995       .  S
Zn1277     O1293   1.994   1_655  S
Zn1278     O1283   2.043       .  S
Zn1278     O1285   2.036       .  S
Zn1278     O1289   1.969   1_655  S
Zn1279     O1281   1.952       .  S
Zn1279     O1284   2.048       .  S
Zn1279     O1287   2.032       .  S
Zn1279     O1290   1.964       .  S
Zn1280     O1281   1.987   1_455  S
Zn1280     O1288   2.059       .  S
Zn1280     O1291   2.091       .  S
Zn1280     O1292   2.074       .  S
O1282      C1294   1.272       .  A
O1284      C1296   1.276       .  A
O1285      C1294   1.277       .  A
O1287      C1295   1.274       .  A
O1288      C1297   1.282   1_455  A
O1289      C1298   1.269       .  A
O1290      C1297   1.271       .  A
O1293      C1299   1.271       .  A
C1294      C1400   1.477       .  S
C1295      C1873   1.500       .  S
C1296      C1420   1.483       .  S
C1297      C1413   1.470       .  S
C1298      C1543   1.490       .  S
C1299      C1483   1.496       .  S
Zn1300     O1304   1.933       .  S
Zn1300     O1305   2.038       .  S
Zn1300     O1309   2.032       .  S
Zn1300     O1316   2.000   1_655  S
Zn1301     O1304   1.931       .  S
Zn1301     O1306   2.014       .  S
Zn1301     O1308   1.997       .  S
Zn1301     O1312   1.967       .  S
Zn1302     O1304   1.900       .  S
Zn1302     O1307   1.983       .  S
Zn1302     O1310   2.010       .  S
Zn1302     O1313   1.964   1_655  S
Zn1303     O1304   1.970   1_455  S
Zn1303     O1311   2.078       .  S
Zn1303     O1314   2.073       .  S
Zn1303     O1315   2.078       .  S
O1305      C1317   1.279       .  A
O1306      C1318   1.272       .  A
O1307      C1319   1.269       .  A
O1308      C1317   1.271       .  A
O1309      C1319   1.277       .  A
O1310      C1318   1.274       .  A
O1311      C1320   1.280       .  A
O1312      C1321   1.270       .  A
O1313      C1320   1.269       .  A
O1314      C1321   1.282   1_455  A
O1315      C1322   1.282       .  A
O1316      C1322   1.271       .  A
C1317      C1810   1.487       .  S
C1318      C1390   1.479       .  S
C1319      C1410   1.472       .  S
C1320      C1443   1.484       .  S
C1321      C1403   1.473       .  S
C1322      C1580   1.480       .  S
Zn1323     O1328   1.990       .  S
Zn1323     O1332   2.014       .  S
Zn1323     O1339   1.995       .  S
Zn1324     O1329   2.043       .  S
Zn1324     O1331   2.038       .  S
Zn1324     O1335   1.973       .  S
Zn1325     O1327   1.928       .  S
Zn1325     O1330   2.028       .  S
Zn1325     O1333   2.006       .  S
Zn1325     O1336   1.971       .  S
Zn1326     O1327   1.968       .  S
Zn1326     O1334   2.060       .  S
Zn1326     O1337   2.064       .  S
Zn1326     O1338   2.052       .  S
O1328      C1340   1.272       .  A
O1330      C1342   1.274       .  A
O1331      C1340   1.279       .  A
O1333      C1341   1.273       .  A
O1334      C1343   1.281       .  A
O1335      C1344   1.268       .  A
O1336      C1343   1.271       .  A
O1339      C1345   1.273       .  A
C1340      C1370   1.480       .  S
C1341      C1720   1.496       .  S
C1342      C1473   1.480       .  S
C1343      C1380   1.472       .  S
C1344      C1490   1.484       .  S
C1345      C1423   1.482       .  S
Zn1346     O1350   1.911       .  S
Zn1346     O1351   2.024       .  S
Zn1346     O1355   1.972       .  S
Zn1346     O1362   1.979       .  S
Zn1347     O1350   1.934       .  S
Zn1347     O1352   1.974       .  S
Zn1347     O1354   2.027       .  S
Zn1347     O1358   1.977       .  S
Zn1348     O1350   1.974       .  S
Zn1348     O1353   2.055       .  S
Zn1348     O1356   2.069       .  S
Zn1348     O1359   2.085       .  S
Zn1349     O1350   1.944       .  S
Zn1349     O1357   2.003       .  S
Zn1349     O1360   2.042       .  S
Zn1349     O1361   2.033       .  S
O1351      C1363   1.274       .  A
O1352      C1364   1.270       .  A
O1353      C1365   1.279       .  A
O1354      C1363   1.272       .  A
O1355      C1365   1.272       .  A
O1356      C1364   1.281       .  A
O1357      C1366   1.272       .  A
O1358      C1367   1.271       .  A
O1359      C1366   1.281       .  A
O1360      C1367   1.280       .  A
O1361      C1368   1.277       .  A
O1362      C1368   1.271       .  A
C1363      C1433   1.489       .  S
C1364      C1373   1.471       .  S
C1365      C1393   1.478       .  S
C1366      C1520   1.493       .  S
C1367      C1683   1.476       .  S
C1368      C1383   1.470       .  S
C1369      C1370   1.407       .  A
C1369      C1374   1.404       .  A
C1369      H1376   1.083       .  S
C1370      C1371   1.408       .  A
C1371      C1372   1.394       .  A
C1371      F1378   1.358       .  S
C1372      C1373   1.402       .  A
C1372      H1377   1.084       .  S
C1373      C1374   1.405       .  A
C1374      F1375   1.357       .  S
C1379      C1380   1.404       .  A
C1379      C1384   1.392       .  A
C1379      H1386   1.083       .  S
C1380      C1381   1.406       .  A
C1381      C1382   1.403       .  A
C1381      F1388   1.357       .  S
C1382      C1383   1.406       .  A
C1382      H1387   1.083       .  S
C1383      C1384   1.403       .  A
C1384      F1385   1.358       .  S
C1389      C1390   1.409       .  A
C1389      C1394   1.403   1_545  A
C1389      H1396   1.083       .  S
C1390      C1391   1.405       .  A
C1391      C1392   1.391   1_545  A
C1391      F1398   1.358       .  S
C1392      C1393   1.405       .  A
C1392      H1397   1.084       .  S
C1393      C1394   1.406       .  A
C1394      F1395   1.357       .  S
C1399      C1400   1.403       .  A
C1399      C1404   1.393       .  A
C1399      H1406   1.084       .  S
C1400      C1401   1.409       .  A
C1401      C1402   1.403       .  A
C1401      F1408   1.357       .  S
C1402      C1403   1.404       .  A
C1402      H1407   1.083   1_655  S
C1403      C1404   1.406       .  A
C1404      F1405   1.358       .  S
C1409      C1410   1.409   1_455  A
C1409      C1414   1.398       .  A
C1409      H1416   1.083       .  S
C1410      C1411   1.401       .  A
C1411      C1412   1.395       .  A
C1411      F1418   1.357       .  S
C1412      C1413   1.408       .  A
C1412      H1417   1.084       .  S
C1413      C1414   1.400   1_655  A
C1414      F1415   1.357       .  S
C1419      C1420   1.408       .  A
C1419      C1424   1.406   1_545  A
C1419      H1426   1.083       .  S
C1421      C1422   1.393   1_545  A
C1421      F1428   1.358       .  S
C1422      C1423   1.403       .  A
C1422      H1427   1.084       .  S
C1424      F1425   1.357       .  S
C1429      C1430   1.405       .  A
C1429      C1434   1.407   1_455  A
C1429      H1436   1.083       .  S
C1430      C1431   1.409       .  A
C1431      C1432   1.396   1_455  A
C1431      F1438   1.358       .  S
C1432      C1433   1.404       .  A
C1432      H1437   1.083       .  S
C1433      C1434   1.413       .  A
C1434      F1435   1.357       .  S
C1439      C1440   1.402       .  A
C1439      C1444   1.391       .  A
C1439      H1446   1.083       .  S
C1440      C1441   1.413       .  A
C1441      C1442   1.408       .  A
C1441      F1448   1.357       .  S
C1442      C1443   1.405       .  A
C1442      H1447   1.083       .  S
C1443      C1444   1.410       .  A
C1444      F1445   1.358       .  S
C1449      C1450   1.405       .  A
C1449      C1454   1.403   1_545  A
C1449      H1456   1.084   1_545  S
C1450      C1451   1.401       .  A
C1451      C1452   1.392       .  A
C1451      F1458   1.358       .  S
C1452      C1453   1.406       .  A
C1452      H1457   1.084       .  S
C1453      C1454   1.407   1_545  A
C1454      F1455   1.357       .  S
C1459      C1460   1.404   1_545  A
C1459      C1464   1.406       .  A
C1459      H1466   1.083   1_545  S
C1460      C1461   1.403   1_565  A
C1461      C1462   1.394       .  A
C1461      F1468   1.358       .  S
C1462      C1463   1.405       .  A
C1462      H1467   1.083       .  S
C1463      C1464   1.411       .  A
C1464      F1465   1.357       .  S
C1469      C1470   1.405       .  A
C1469      C1474   1.395   1_455  A
C1469      H1476   1.083       .  S
C1471      C1472   1.405   1_455  A
C1471      F1478   1.357       .  S
C1472      C1473   1.408       .  A
C1472      H1477   1.083       .  S
C1474      F1475   1.358       .  S
C1479      C1480   1.404       .  A
C1479      C1484   1.395       .  A
C1479      H1486   1.083       .  S
C1481      C1482   1.411       .  A
C1481      F1488   1.357       .  S
C1482      C1483   1.410   1_554  A
C1482      H1487   1.082       .  S
C1484      F1485   1.358       .  S
C1489      C1490   1.402       .  A
C1489      C1494   1.402       .  A
C1490      C1491   1.415       .  A
C1491      C1492   1.398       .  A
C1491      F1498   1.358       .  S
C1492      C1493   1.397       .  A
C1492      H1497   1.084       .  S
C1493      C1494   1.409       .  A
C1494      F1495   1.358       .  S
C1499      C1500   1.403       .  A
C1499      C1504   1.394       .  A
C1499      H1506   1.084       .  S
C1500      C1501   1.400       .  A
C1501      C1502   1.399       .  A
C1501      F1508   1.358       .  S
C1502      C1503   1.411       .  A
C1502      H1507   1.083       .  S
C1503      C1504   1.406       .  A
C1504      F1505   1.357       .  S
C1509      C1510   1.406       .  A
C1509      C1514   1.405       .  A
C1509      H1516   1.083       .  S
C1510      C1511   1.406       .  A
C1511      C1512   1.392       .  A
C1511      F1518   1.358       .  S
C1512      C1513   1.403       .  A
C1512      H1517   1.084       .  S
C1513      C1514   1.408       .  A
C1514      F1515   1.357       .  S
C1519      C1520   1.405       .  A
C1519      C1524   1.409       .  A
C1519      H1526   1.083       .  S
C1520      C1521   1.414       .  A
C1521      C1522   1.401       .  A
C1521      F1528   1.357       .  S
C1522      C1523   1.399       .  A
C1522      H1527   1.083       .  S
C1523      C1524   1.411       .  A
C1524      F1525   1.358       .  S
C1529      C1530   1.403       .  A
C1529      C1534   1.396       .  A
C1529      H1536   1.080       .  S
C1530      C1531   1.406       .  A
C1531      C1532   1.397       .  A
C1531      F1538   1.358       .  S
C1532      C1533   1.404       .  A
C1532      H1537   1.080       .  S
C1533      C1534   1.406       .  A
C1534      F1535   1.358       .  S
C1539      C1540   1.414       .  A
C1539      C1544   1.409       .  A
C1539      H1546   1.083       .  S
C1540      C1541   1.407       .  A
C1541      C1542   1.395       .  A
C1541      F1548   1.358       .  S
C1542      C1543   1.409       .  A
C1542      H1547   1.084       .  S
C1543      C1544   1.405       .  A
C1544      F1545   1.357   1_556  S
C1549      C1550   1.407       .  A
C1549      C1554   1.391       .  A
C1549      H1556   1.084       .  S
C1550      C1551   1.407       .  A
C1551      C1552   1.401       .  A
C1551      F1558   1.357       .  S
C1552      C1553   1.407       .  A
C1552      H1557   1.083       .  S
C1553      C1554   1.405       .  A
C1554      F1555   1.358       .  S
C1559      C1560   1.397       .  A
C1559      C1564   1.397       .  A
C1559      H1566   1.083       .  S
C1560      C1561   1.416       .  A
C1561      C1562   1.397       .  A
C1561      F1568   1.358       .  S
C1562      C1563   1.398       .  A
C1562      H1567   1.083       .  S
C1563      C1564   1.417       .  A
C1564      F1565   1.358       .  S
C1569      C1570   1.404       .  A
C1569      C1574   1.407       .  A
C1569      H1576   1.083       .  S
C1570      C1571   1.411       .  A
C1571      C1572   1.397       .  A
C1571      F1578   1.358       .  S
C1572      C1573   1.403       .  A
C1572      H1577   1.083       .  S
C1573      C1574   1.414       .  A
C1574      F1575   1.357       .  S
C1579      C1580   1.410       .  A
C1579      C1584   1.407       .  A
C1579      H1586   1.084       .  S
C1580      C1581   1.400       .  A
C1581      C1582   1.400       .  A
C1581      F1588   1.357       .  S
C1582      C1583   1.410       .  A
C1582      H1587   1.084       .  S
C1583      C1584   1.405       .  A
C1584      F1585   1.357       .  S
C1589      C1590   1.410       .  A
C1589      C1594   1.407       .  A
C1589      H1596   1.083       .  S
C1590      C1591   1.401       .  A
C1591      C1592   1.401       .  A
C1591      F1598   1.358       .  S
C1592      C1593   1.412       .  A
C1592      H1597   1.084       .  S
C1593      C1594   1.405       .  A
C1594      F1595   1.357   1_556  S
C1599      C1600   1.410       .  A
C1599      C1604   1.404       .  A
C1599      H1606   1.083       .  S
C1600      C1601   1.408       .  A
C1601      C1602   1.407       .  A
C1601      F1608   1.357       .  S
C1602      C1603   1.408       .  A
C1602      H1607   1.083       .  S
C1603      C1604   1.405       .  A
C1604      F1605   1.358       .  S
C1609      C1610   1.404       .  A
C1609      C1614   1.393       .  A
C1609      H1616   1.083       .  S
C1610      C1611   1.411       .  A
C1611      C1612   1.407       .  A
C1611      F1618   1.357       .  S
C1612      C1613   1.407       .  A
C1612      H1617   1.083       .  S
C1613      C1614   1.407       .  A
C1614      F1615   1.358       .  S
C1619      C1620   1.396       .  A
C1619      C1624   1.394       .  A
C1619      H1626   1.084       .  S
C1620      C1621   1.410       .  A
C1621      C1622   1.397       .  A
C1621      F1628   1.358       .  S
C1622      C1623   1.402       .  A
C1622      H1627   1.083       .  S
C1623      C1624   1.417       .  A
C1624      F1625   1.358       .  S
C1629      C1630   1.405       .  A
C1629      C1634   1.395       .  A
C1629      H1636   1.083       .  S
C1630      C1631   1.410       .  A
C1631      C1632   1.388       .  A
C1631      F1638   1.358       .  S
C1632      C1633   1.400       .  A
C1632      H1637   1.084       .  S
C1633      C1634   1.405       .  A
C1634      F1635   1.358       .  S
C1639      C1640   1.410       .  A
C1639      C1644   1.394       .  A
C1639      H1646   1.083       .  S
C1640      C1641   1.405       .  A
C1641      C1642   1.406       .  A
C1641      F1648   1.357       .  S
C1642      C1643   1.413       .  A
C1642      H1647   1.082       .  S
C1643      C1644   1.406       .  A
C1644      F1645   1.358       .  S
C1649      C1650   1.402       .  A
C1649      C1654   1.397       .  A
C1649      H1656   1.083       .  S
C1650      C1651   1.405       .  A
C1651      C1652   1.396       .  A
C1651      F1658   1.358       .  S
C1652      C1653   1.404       .  A
C1652      H1657   1.084       .  S
C1653      C1654   1.407       .  A
C1654      F1655   1.357       .  S
C1659      C1660   1.402       .  A
C1659      C1664   1.400       .  A
C1659      H1666   1.083       .  S
C1660      C1661   1.409       .  A
C1661      C1662   1.401       .  A
C1661      F1668   1.358       .  S
C1662      C1663   1.402       .  A
C1662      H1667   1.083       .  S
C1663      C1664   1.408       .  A
C1664      F1665   1.358       .  S
C1669      C1670   1.411       .  A
C1669      C1674   1.397       .  A
C1669      H1676   1.084       .  S
C1670      C1671   1.404       .  A
C1671      C1672   1.405       .  A
C1671      F1678   1.357       .  S
C1672      C1673   1.414       .  A
C1672      H1677   1.083       .  S
C1673      C1674   1.405       .  A
C1674      F1675   1.358       .  S
C1679      C1680   1.409       .  A
C1679      C1684   1.395       .  A
C1679      H1686   1.084       .  S
C1680      C1681   1.399       .  A
C1681      C1682   1.397       .  A
C1681      F1688   1.357       .  S
C1682      C1683   1.411       .  A
C1682      H1687   1.083       .  S
C1683      C1684   1.402       .  A
C1684      F1685   1.358       .  S
C1689      C1690   1.408       .  A
C1689      C1694   1.406       .  A
C1689      H1696   1.083       .  S
C1690      C1691   1.409       .  A
C1691      C1692   1.388       .  A
C1691      F1698   1.358       .  S
C1692      C1693   1.403       .  A
C1692      H1697   1.083       .  S
C1693      C1694   1.409       .  A
C1694      F1695   1.357       .  S
C1699      C1700   1.398       .  A
C1699      C1704   1.399       .  A
C1699      H1706   1.083       .  S
C1700      C1701   1.418       .  A
C1701      C1702   1.400       .  A
C1701      F1708   1.358       .  S
C1702      C1703   1.398       .  A
C1702      H1707   1.083       .  S
C1703      C1704   1.417       .  A
C1704      F1705   1.358       .  S
C1709      C1710   1.410       .  A
C1709      C1714   1.398       .  A
C1709      H1716   1.084       .  S
C1710      C1711   1.403       .  A
C1711      C1712   1.401       .  A
C1711      F1718   1.357       .  S
C1712      C1713   1.410       .  A
C1712      H1717   1.084       .  S
C1713      C1714   1.402       .  A
C1714      F1715   1.357       .  S
C1719      C1720   1.417       .  A
C1719      C1724   1.408       .  A
C1719      H1726   1.083       .  S
C1720      C1721   1.405       .  A
C1721      C1722   1.398       .  A
C1721      F1728   1.357       .  S
C1722      C1723   1.410       .  A
C1722      H1727   1.083       .  S
C1723      C1724   1.402       .  A
C1724      F1725   1.357       .  S
C1729      C1730   1.411       .  A
C1729      C1734   1.405       .  A
C1729      H1736   1.083       .  S
C1730      C1731   1.407       .  A
C1731      C1732   1.390       .  A
C1731      F1738   1.358       .  S
C1732      C1733   1.407       .  A
C1732      H1737   1.084       .  S
C1733      C1734   1.406       .  A
C1734      F1735   1.357       .  S
C1739      C1740   1.404   1_545  A
C1739      C1744   1.399       .  A
C1739      H1746   1.083   1_545  S
C1740      C1741   1.417       .  A
C1741      C1742   1.407   1_565  A
C1741      F1748   1.357       .  S
C1742      C1743   1.403       .  A
C1742      H1747   1.083       .  S
C1743      C1744   1.413       .  A
C1744      F1745   1.358       .  S
C1749      C1750   1.406       .  A
C1749      C1754   1.402       .  A
C1749      H1756   1.083       .  S
C1750      C1751   1.418       .  A
C1751      C1752   1.403       .  A
C1751      F1758   1.357       .  S
C1752      C1753   1.399       .  A
C1752      H1757   1.083       .  S
C1753      C1754   1.409       .  A
C1754      F1755   1.358       .  S
C1759      C1760   1.408       .  A
C1759      C1764   1.400       .  A
C1759      H1766   1.084       .  S
C1760      C1761   1.401       .  A
C1761      C1762   1.398       .  A
C1761      F1768   1.357       .  S
C1762      C1763   1.410       .  A
C1762      H1767   1.083       .  S
C1763      C1764   1.404       .  A
C1764      F1765   1.357       .  S
C1769      C1770   1.405       .  A
C1769      C1774   1.404       .  A
C1769      H1776   1.083       .  S
C1770      C1771   1.402       .  A
C1771      C1772   1.391       .  A
C1771      F1778   1.358       .  S
C1772      C1773   1.408       .  A
C1772      H1777   1.083       .  S
C1773      C1774   1.409       .  A
C1774      F1775   1.357       .  S
C1779      C1780   1.405       .  A
C1779      C1784   1.395       .  A
C1779      H1786   1.083       .  S
C1780      C1781   1.406       .  A
C1781      C1782   1.394       .  A
C1781      F1788   1.358       .  S
C1782      C1783   1.402       .  A
C1782      H1787   1.084       .  S
C1783      C1784   1.403       .  A
C1784      F1785   1.358       .  S
C1789      C1790   1.397       .  A
C1789      C1794   1.399   1_545  A
C1789      H1796   1.083       .  S
C1790      C1791   1.412       .  A
C1791      C1792   1.401   1_545  A
C1791      F1798   1.358       .  S
C1792      C1793   1.399       .  A
C1792      H1797   1.083       .  S
C1793      C1794   1.412       .  A
C1794      F1795   1.358       .  S
C1799      C1800   1.403       .  A
C1799      C1804   1.401       .  A
C1799      H1806   1.083       .  S
C1800      C1801   1.410       .  A
C1801      C1802   1.401       .  A
C1801      F1808   1.358       .  S
C1802      C1803   1.403       .  A
C1802      H1807   1.083       .  S
C1803      C1804   1.408       .  A
C1804      F1805   1.358       .  S
C1809      C1810   1.401       .  A
C1809      C1814   1.393       .  A
C1809      H1816   1.083       .  S
C1810      C1811   1.417       .  A
C1811      C1812   1.405       .  A
C1811      F1818   1.357       .  S
C1812      C1813   1.401       .  A
C1812      H1817   1.083       .  S
C1813      C1814   1.411       .  A
C1814      F1815   1.358       .  S
C1819      C1820   1.403       .  A
C1819      C1824   1.393       .  A
C1819      H1826   1.084       .  S
C1820      C1821   1.404       .  A
C1821      C1822   1.396       .  A
C1821      F1828   1.357       .  S
C1822      C1823   1.405       .  A
C1822      H1827   1.083       .  S
C1823      C1824   1.406       .  A
C1824      F1825   1.358       .  S
C1829      C1830   1.408       .  A
C1829      C1834   1.399       .  A
C1829      H1836   1.083       .  S
C1830      C1831   1.408       .  A
C1831      C1832   1.404       .  A
C1831      F1838   1.357       .  S
C1832      C1833   1.405       .  A
C1832      H1837   1.083       .  S
C1833      C1834   1.402       .  A
C1834      F1835   1.358       .  S
C1839      C1840   1.416       .  A
C1839      C1844   1.407   1_655  A
C1839      H1846   1.082       .  S
C1840      C1841   1.404   1_655  A
C1841      C1842   1.395       .  A
C1841      F1848   1.358       .  S
C1842      C1843   1.411       .  A
C1842      H1847   1.083       .  S
C1843      C1844   1.403       .  A
C1844      F1845   1.357       .  S
C1849      C1850   1.403       .  A
C1849      C1854   1.402       .  A
C1849      H1856   1.083       .  S
C1850      C1851   1.400       .  A
C1851      C1852   1.397       .  A
C1851      F1858   1.358       .  S
C1852      C1853   1.411       .  A
C1852      H1857   1.083       .  S
C1853      C1854   1.410       .  A
C1854      F1855   1.357       .  S
C1859      C1860   1.406       .  A
C1859      C1864   1.407       .  A
C1859      H1866   1.083       .  S
C1860      C1861   1.401       .  A
C1861      C1862   1.392       .  A
C1861      F1868   1.358       .  S
C1862      C1863   1.408       .  A
C1862      H1867   1.083       .  S
C1863      C1864   1.411       .  A
C1864      F1865   1.357       .  S
C1869      C1870   1.407       .  A
C1869      C1874   1.411       .  A
C1869      H1876   1.083       .  S
C1870      C1871   1.416       .  A
C1871      C1872   1.398       .  A
C1871      F1878   1.358       .  S
C1872      C1873   1.403       .  A
C1873      C1874   1.417       .  A
C1874      F1875   1.357       .  S
C1879      C1880   1.407       .  A
C1879      C1884   1.398       .  A
C1879      H1886   1.083       .  S
C1880      C1881   1.406       .  A
C1881      C1882   1.408       .  A
C1881      F1888   1.357       .  S
C1882      C1883   1.412       .  A
C1882      H1887   1.082       .  S
C1883      C1884   1.408       .  A
C1884      F1885   1.358       .  S
C1889      C1890   1.404       .  A
C1889      C1894   1.397       .  A
C1889      H1896   1.084       .  S
C1890      C1891   1.405       .  A
C1891      C1892   1.403       .  A
C1891      F1898   1.357       .  S
C1892      C1893   1.407       .  A
C1892      H1897   1.084       .  S
C1893      C1894   1.405       .  A
C1894      F1895   1.358       .  S
C1899      C1900   1.409       .  A
C1899      C1904   1.399   1_455  A
C1899      H1906   1.084       .  S
C1900      C1901   1.403   1_455  A
C1901      C1902   1.404       .  A
C1901      F1908   1.357       .  S
C1902      C1903   1.413       .  A
C1902      H1907   1.083       .  S
C1903      C1904   1.404       .  A
C1904      F1905   1.357       .  S
