geometry optimzed in LAMMPS
_audit_creation_date              2020-11-30 
_audit_creation_method            'lammps2cif' 
_symmetry_space_group_name_H-M    'P1' 
_symmetry_Int_Tables_number       1 
_symmetry_cell_setting            triclinic 
loop_ 
_symmetry_equiv_pos_as_xyz 
  x,y,z 
_cell_length_a                    48.02747318 
_cell_length_b                    48.04871680828252 
_cell_length_c                    38.083052927508206 
_cell_angle_alpha                 90.00598302080998 
_cell_angle_beta                  89.87780432124515 
_cell_angle_gamma                 120.35958823108022 
loop_ 
_atom_site_label 
_atom_site_type_symbol 
_atom_site_fract_x 
_atom_site_fract_y 
_atom_site_fract_z 
_atom_site_charge 
Fe1        Fe  0.56566159  0.66115125  0.41700643     1.65800
Fe2        Fe  0.50564741  0.66319546  0.37065479     1.73200
Fe3        Fe  0.50563889  0.66584850  0.46002514     1.54400
O4          O  0.50731492  0.62661356  0.47963651    -0.81600
O5          O  0.48982866  0.69388641  0.38752684    -0.80000
O6          O  0.54535072  0.62229043  0.44983131    -0.84200
O7          O  0.58590212  0.69204850  0.45883562    -0.79000
O8          O  0.45975365  0.63370804  0.44174648    -0.80800
O9          O  0.54874161  0.70300676  0.35478521    -0.83500
C10         C  0.57736183  0.70453167  0.48259461     0.97200
C11         C  0.52292860  0.61239037  0.47248221     1.04700
O12         O  0.52570659  0.66334459  0.41588653    -1.12500
O13         O  0.51687165  0.63227641  0.34446608    -0.74900
O14         O  0.55432881  0.62976983  0.37537352    -0.78400
O15         O  0.54839422  0.69819465  0.48519671    -0.79100
C16         C  0.53641907  0.62222129  0.34862661     0.96100
O17         O  0.58772357  0.70022770  0.38467928    -0.77100
O18         O  0.46139788  0.62387719  0.38488186    -0.82300
C19         C  0.49056270  0.70886797  0.41524006     0.98800
C20         C  0.44609513  0.61835209  0.41379200     1.04700
O21         O  0.50121749  0.70487607  0.44415037    -0.77900
C22         C  0.57812477  0.71406660  0.36356701     1.03000
Fe23       Fe  0.66155040  0.57480399  0.08654434     1.65800
Fe24       Fe  0.66213120  0.51265724  0.12915209     1.73200
Fe25       Fe  0.65299550  0.51013329  0.03984467     1.54400
O26         O  0.61286539  0.51418095  0.02990651    -0.81600
O27         O  0.69105002  0.49735419  0.10583435    -0.80000
O28         O  0.61761320  0.55532425  0.06265472    -0.82400
O29         O  0.68560199  0.59191943  0.03958482    -0.79000
O30         O  0.62212373  0.46497637  0.06099601    -0.80800
O31         O  0.70372423  0.55490028  0.14243082    -0.83500
C32         C  0.69197103  0.58087072  0.01262710     0.97200
C33         C  0.60193194  0.53148721  0.04221884     1.04700
O34         O  0.65893031  0.53253407  0.08514339    -1.12500
O35         O  0.63332500  0.52442565  0.15967811    -0.74900
O36         O  0.63854422  0.56809931  0.13408274    -0.78400
O37         O  0.68248430  0.55108913  0.00958779    -0.79100
C38         C  0.62869878  0.54816792  0.15915871     0.96100
O39         O  0.70527433  0.59497254  0.11062435    -0.77100
O40         O  0.62160280  0.46843103  0.11931068    -0.82300
C41         C  0.70167278  0.49603250  0.07560937     0.98800
C42         C  0.61158534  0.45250617  0.09098671     1.04700
O43         O  0.69222287  0.50358220  0.04785918    -0.77900
C44         C  0.71786097  0.58397755  0.13167995     1.03000
Fe45       Fe  0.74820416  0.75526102  0.74872872     1.65800
Fe46       Fe  0.80909404  0.81937825  0.79219617     1.73200
Fe47       Fe  0.80868881  0.81738774  0.70247977     1.54400
O48         O  0.80619241  0.77529537  0.68632450    -0.81600
O49         O  0.82384221  0.86512465  0.77216710    -0.80000
O50         O  0.76867350  0.73493720  0.71913160    -0.84200
O51         O  0.72841306  0.76346606  0.70486535    -0.79000
O52         O  0.85445262  0.83217138  0.72115534    -0.80800
O53         O  0.76669473  0.81652466  0.80718684    -0.83500
C54         C  0.73724351  0.78316325  0.67955298     0.97200
C55         C  0.79092401  0.74596638  0.69618679     1.04700
O56         O  0.78863345  0.79728613  0.74783750    -1.12500
O57         O  0.79779931  0.77806501  0.82150779    -0.74900
O58         O  0.75873826  0.73707008  0.79251439    -0.78400
O59         O  0.76616742  0.80594333  0.67638473    -0.79100
C60         C  0.77728830  0.74821632  0.81864746     0.96100
O61         O  0.72656232  0.77458241  0.77845837    -0.77100
O62         O  0.85321362  0.82432487  0.77893429    -0.82300
C63         C  0.82331206  0.87777631  0.74304459     0.98800
C64         C  0.86822421  0.83249713  0.74976850     1.04700
O65         O  0.81393263  0.86163517  0.71481649    -0.77900
C66         C  0.73711840  0.79867614  0.79899124     1.03000
Fe67       Fe  0.33065056  0.42777633  0.91623963     1.65800
Fe68       Fe  0.32277160  0.48376865  0.86906535     1.73200
Fe69       Fe  0.32474227  0.48742158  0.95817786     1.54400
O70         O  0.29784768  0.44454045  0.98705486    -0.81600
O71         O  0.36174950  0.52914443  0.88011378    -0.80000
O72         O  0.29767692  0.40563065  0.95581282    -0.84200
O73         O  0.36792178  0.44862141  0.95137635    -0.79000
O74         O  0.28237524  0.48663509  0.94466615    -0.80800
O75         O  0.35312220  0.47201441  0.84142568    -0.83500
C76         C  0.38031858  0.47409628  0.96972917     0.97200
C77         C  0.28939480  0.41501054  0.98281281     1.04700
O78         O  0.32600236  0.46619168  0.91455307    -1.12500
O79         O  0.28347199  0.43980331  0.85638793    -0.74900
O80         O  0.29369436  0.40361756  0.88101581    -0.78400
O81         O  0.36751721  0.49137095  0.97429757    -0.79100
C82         C  0.27635199  0.41086659  0.86243797     0.96100
O83         O  0.36473948  0.44312856  0.87734901    -0.77100
O84         O  0.29124194  0.49820830  0.88776053    -0.82300
C85         C  0.36665629  0.54586926  0.90780978     0.98800
C86         C  0.27616412  0.49608862  0.91603272     1.04700
O87         O  0.35214308  0.53336587  0.93662244    -0.77900
C88         C  0.36796672  0.45703285  0.84828879     1.03000
Fe89       Fe  0.41547520  0.32966034  0.59197025     1.65800
Fe90       Fe  0.47658233  0.32726276  0.63263599     1.73200
Fe91       Fe  0.47882415  0.33879973  0.54377826     1.54400
O92         O  0.43766083  0.30599853  0.51619637    -0.81600
O93         O  0.52225946  0.36598910  0.62177055    -0.80000
O94         O  0.40077033  0.31361908  0.54161927    -0.84200
O95         O  0.43667386  0.37605664  0.57475351    -0.79000
O96         O  0.48915935  0.30217051  0.55107840    -0.80800
O97         O  0.46801608  0.35872792  0.66201947    -0.83500
C98         C  0.45718302  0.38989585  0.55024529     0.97200
C99         C  0.41009163  0.30341343  0.51631564     1.04700
O100        O  0.45729940  0.33195428  0.58938020    -1.12500
O101        O  0.43258824  0.28695997  0.64676343    -0.74900
O102        O  0.39519040  0.28325631  0.60866463    -0.78400
O103        O  0.47087227  0.37680317  0.53378134    -0.79100
C104        C  0.40520401  0.27115276  0.63155987     0.96100
O105        O  0.41944814  0.34529842  0.64310115    -0.77100
O106        O  0.48838794  0.29591980  0.60921436    -0.82300
C107        C  0.53715005  0.37976060  0.59365090     0.98800
C108        C  0.49254235  0.28879468  0.57829260     1.04700
O109        O  0.52337682  0.37216798  0.56387840    -0.77900
C110        C  0.44176247  0.35863985  0.66544203     1.03000
Fe111      Fe  0.23688072  0.24462308  0.25271858     1.65800
Fe112      Fe  0.17435857  0.18192122  0.20963215     1.73200
Fe113      Fe  0.17246041  0.18650627  0.29918849     1.54400
O114        O  0.21375732  0.19826646  0.32834836    -0.81600
O115        O  0.13010899  0.17771625  0.22100532    -0.80000
O116        O  0.25457624  0.23582534  0.29770734    -0.84200
O117        O  0.21798501  0.26800331  0.27994396    -0.79000
O118        O  0.16646234  0.14110251  0.28947006    -0.80800
O119        O  0.18638099  0.22322224  0.18008641    -0.83500
C120        C  0.19373746  0.25916477  0.29997456     0.97200
C121        C  0.24367346  0.21809447  0.32451705     1.04700
O122        O  0.19462777  0.20432871  0.25387351    -1.12500
O123        O  0.21646153  0.18336457  0.19503899    -0.74900
O124        O  0.25740434  0.22299818  0.22520560    -0.78400
O125        O  0.17586520  0.23031334  0.31093449    -0.79100
C126        C  0.24603417  0.19946132  0.20394207     0.96100
O127        O  0.22870487  0.26213697  0.20711465    -0.77100
O128        O  0.15917171  0.13684001  0.23144538    -0.82300
C129        C  0.11403319  0.16995545  0.24945691     0.98800
C130        C  0.15839528  0.12453325  0.26128622     1.04700
O131        O  0.12696848  0.17122552  0.27891658    -0.77900
C132        C  0.20926079  0.25226767  0.18159814     1.03000
Fe133      Fe  0.41314489  0.08972244  0.07303000     1.65800
Fe134      Fe  0.47438720  0.15339076  0.03073994     1.73200
Fe135      Fe  0.47123084  0.15114772  0.12064652     1.54400
O136        O  0.42578773  0.14219609  0.13678655    -0.81600
O137        O  0.51933977  0.16458523  0.04875213    -0.80000
O138        O  0.38914933  0.10893909  0.09743566    -0.84200
O139        O  0.41859885  0.07195749  0.12027623    -0.79000
O140        O  0.48135482  0.19652846  0.10492282    -0.80800
O141        O  0.46940121  0.11052559  0.01123943    -0.83500
C142        C  0.44009393  0.08045742  0.14351688     0.97200
C143        C  0.39746015  0.12806695  0.12345846     1.04700
O144        O  0.45314723  0.13173480  0.07487394    -1.12500
O145        O  0.43247420  0.14572574  0.00621073    -0.74900
O146        O  0.39784399  0.09661855  0.02499421    -0.78400
O147        O  0.46425243  0.10885671  0.14418166    -0.79100
C148        C  0.40603873  0.11941176  0.00339632     0.96100
O149        O  0.43766834  0.07108696  0.04914418    -0.77100
O150        O  0.48240987  0.19823438  0.04652380    -0.82300
C151        C  0.53313672  0.16760638  0.07808769     0.98800
C152        C  0.48536498  0.21155609  0.07624622     1.04700
O153        O  0.51811088  0.16241637  0.10722035    -0.77900
C154        C  0.45825671  0.08245378  0.02448593     1.03000
Fe155      Fe  0.22909484  0.99293180  0.75033535     1.65800
Fe156      Fe  0.17097699  0.99549697  0.70162793     1.73200
Fe157      Fe  0.16897701  0.99973915  0.79026424     1.54400
O158        O  0.16684300  0.95906535  0.81090612    -0.81600
O159        O  0.15419775  0.02589065  0.71743998    -0.80000
O160        O  0.20788056  0.95614891  0.78641614    -0.84200
O161        O  0.24994506  0.02685702  0.78957937    -0.79000
O162        O  0.12335051  0.97050924  0.76987897    -0.80800
O163        O  0.21394164  0.03546776  0.68723044    -0.83500
C164        C  0.24043568  0.03764844  0.81430888     0.97200
C165        C  0.18355347  0.94554826  0.80676935     1.04700
O166        O  0.18980639  0.99588137  0.74747491    -1.12500
O167        O  0.18437776  0.96564003  0.67601795    -0.74900
O168        O  0.21668437  0.95863072  0.71124699    -0.78400
O169        O  0.21107235  0.02957505  0.81759297    -0.79100
C170        C  0.20201785  0.95358640  0.68226302     0.96100
O171        O  0.25221032  0.02990190  0.71476371    -0.77100
O172        O  0.12685433  0.95587991  0.71518548    -0.82300
C173        C  0.15744529  0.04341854  0.74386649     0.98800
C174        C  0.11054872  0.95356186  0.74258326     1.04700
O175        O  0.16899518  0.04050806  0.77265335    -0.77900
C176        C  0.24333915  0.04489734  0.69431438     1.03000
Fe177      Fe  0.32796379  0.90893517  0.41610157     1.65800
Fe178      Fe  0.33069885  0.84844636  0.45803414     1.73200
Fe179      Fe  0.32697684  0.84909586  0.36839510     1.54400
O180        O  0.28766484  0.85407982  0.35490278    -0.81600
O181        O  0.36320396  0.83649713  0.43725642    -0.80000
O182        O  0.28271374  0.88499921  0.39625743    -0.84200
O183        O  0.34666596  0.92564447  0.36664307    -0.79000
O184        O  0.29461722  0.80328798  0.38630916    -0.80800
O185        O  0.36997338  0.89270603  0.47302704    -0.83500
C186        C  0.36051201  0.91870860  0.34286568     0.97200
C187        C  0.27172904  0.86485732  0.37114967     1.04700
O188        O  0.32860100  0.86854548  0.41418023    -1.12500
O189        O  0.29771369  0.85625984  0.48632287    -0.74900
O190        O  0.30899545  0.90366149  0.46592333    -0.78400
O191        O  0.35981269  0.89200557  0.34320086    -0.79100
C192        C  0.29627145  0.88180276  0.48887708     0.96100
O193        O  0.37325383  0.93102329  0.43620633    -0.77100
O194        O  0.29281181  0.80291250  0.44489980    -0.82300
C195        C  0.37445333  0.83484202  0.40761823     0.98800
C196        C  0.28399063  0.78866897  0.41535697     1.04700
O197        O  0.36504233  0.84130225  0.37910024    -0.77900
C198        C  0.38516628  0.92091977  0.45929043     1.03000
Fe199      Fe  0.56821517  0.91071760  0.91597577     1.65800
Fe200      Fe  0.50514099  0.85195016  0.95973993     1.73200
Fe201      Fe  0.51046077  0.84803982  0.87042161     1.54400
O202        O  0.51829544  0.88961899  0.84391457    -0.81600
O203        O  0.49331905  0.80482744  0.94789843    -0.80000
O204        O  0.56587836  0.92474570  0.86549568    -0.84200
O205        O  0.59088601  0.88759209  0.89859141    -0.79000
O206        O  0.46355437  0.83729888  0.88116206    -0.80800
O207        O  0.54642315  0.85843419  0.98605799    -0.83500
C208        C  0.58283087  0.86765283  0.87348827     0.97200
C209        C  0.54456308  0.91636636  0.84209256     1.04700
O210        O  0.52744847  0.86979305  0.91530245    -1.12500
O211        O  0.51384628  0.89750196  0.97503198    -0.74900
O212        O  0.54468086  0.93291654  0.93364249    -0.78400
O213        O  0.55602289  0.85587370  0.85704962    -0.79100
C214        C  0.52570666  0.92489907  0.95980439     0.96100
O215        O  0.58098168  0.90701199  0.96655749    -0.77100
O216        O  0.46126649  0.84275068  0.93920648    -0.82300
C217        C  0.49163496  0.78958804  0.91985947     0.98800
C218        C  0.44808575  0.83574421  0.90902102     1.04700
O219        O  0.49961080  0.80342138  0.89006129    -0.77900
C220        C  0.57324682  0.88461026  0.98859306     1.03000
Fe221      Fe  0.74807742  0.99546490  0.25322961     1.65800
Fe222      Fe  0.81016146  0.99524188  0.29703032     1.73200
Fe223      Fe  0.81337262  0.00399806  0.20760551     1.54400
O224        O  0.77197296  0.97411512  0.17776151    -0.81600
O225        O  0.85413167  0.03646227  0.28743183    -0.80000
O226        O  0.73025988  0.96687885  0.20948174    -0.84200
O227        O  0.76504575  0.03645893  0.22395502    -0.79000
O228        O  0.82001173  0.96496034  0.21659498    -0.80800
O229        O  0.79634920  0.02296881  0.32701390    -0.83500
C230        C  0.78932106  0.05279679  0.20428602     0.97200
C231        C  0.74173311  0.96233166  0.18161754     1.04700
O232        O  0.79054647  0.99824759  0.25259988    -1.12500
O233        O  0.76864094  0.95305027  0.30980225    -0.74900
O234        O  0.72796301  0.95429918  0.28259672    -0.78400
O235        O  0.80935991  0.04393719  0.19586015    -0.79100
C236        C  0.73904167  0.94068229  0.30188019     0.96100
O237        O  0.75755610  0.02369946  0.29685178    -0.77100
O238        O  0.82700729  0.96706631  0.27462545    -0.82300
C239        C  0.87079359  0.04584190  0.25939901     0.98800
C240        C  0.82833349  0.95637970  0.24446708     1.04700
O241        O  0.85863182  0.03500327  0.22929444    -0.77900
C242        C  0.77556437  0.03171027  0.32352614     1.03000
Fe243      Fe  0.66238668  0.09609057  0.58702652     1.65800
Fe244      Fe  0.65819327  0.15326137  0.53823952     1.73200
Fe245      Fe  0.65988017  0.15843487  0.62717284     1.54400
O246        O  0.63133494  0.11660371  0.65709147    -0.81600
O247        O  0.69893591  0.19754010  0.54801937    -0.80000
O248        O  0.62937735  0.07616878  0.62688319    -0.84200
O249        O  0.69996787  0.11653054  0.62223621    -0.79000
O250        O  0.61886751  0.15946168  0.61236347    -0.80800
O251        O  0.68530779  0.13743455  0.51067179    -0.83500
C252        C  0.71252764  0.14161292  0.64142325     0.97200
C253        C  0.62165782  0.08673722  0.65325545     1.04700
O254        O  0.66039606  0.13592029  0.58426397    -1.12500
O255        O  0.61664521  0.11067518  0.52791223    -0.74900
O256        O  0.62448810  0.07265402  0.55245585    -0.78400
O257        O  0.70102503  0.16014331  0.64489922    -0.79100
C258        C  0.60780537  0.08147571  0.53485146     0.96100
O259        O  0.69578317  0.10837248  0.54751358    -0.77100
O260        O  0.63003064  0.17165278  0.55591483    -0.82300
C261        C  0.70375818  0.21495062  0.57515675     0.98800
C262        C  0.61444645  0.16994303  0.58347885     1.04700
O263        O  0.68910999  0.20356672  0.60421310    -0.77900
C264        C  0.69839446  0.12080925  0.51757396     1.03000
Fe265      Fe  0.08031755  0.42624294  0.40711352     1.65800
Fe266      Fe  0.14166627  0.48409937  0.45641475     1.73200
Fe267      Fe  0.14524328  0.48932115  0.36736986     1.54400
O268        O  0.14516332  0.44855565  0.35131508    -0.81600
O269        O  0.15923801  0.53121390  0.43931156    -0.80000
O270        O  0.09955380  0.40693481  0.37331681    -0.84200
O271        O  0.06227743  0.44054854  0.36613187    -0.79000
O272        O  0.19064459  0.50542888  0.38908633    -0.80800
O273        O  0.10007270  0.48280654  0.47238609    -0.83500
C274        C  0.07428100  0.45817634  0.33931599     0.97200
C275        C  0.12577113  0.41854378  0.35593642     1.04700
O276        O  0.12213804  0.46643525  0.41034146    -1.12500
O277        O  0.12713192  0.44016187  0.48149111    -0.74900
O278        O  0.08892610  0.40323957  0.44768237    -0.78400
O279        O  0.10451381  0.47723906  0.33643007    -0.79100
C280        C  0.10560316  0.41114449  0.47541704     0.96100
O281        O  0.05966751  0.44382943  0.44097745    -0.77100
O282        O  0.18509687  0.48713027  0.44365148    -0.82300
C283        C  0.15870995  0.54612754  0.41191265     0.98800
C284        C  0.20247573  0.50088724  0.41687957     1.04700
O285        O  0.14753234  0.53178634  0.38277336    -0.77900
C286        C  0.07049990  0.46625366  0.46374666     1.03000
Fe287      Fe  0.89761998  0.32847800  0.08128486     1.65800
Fe288      Fe  0.83832939  0.32937116  0.03246235     1.73200
Fe289      Fe  0.83550896  0.33133796  0.12165008     1.54400
O290        O  0.83518652  0.29083045  0.14014537    -0.81600
O291        O  0.82226011  0.36007910  0.04902770    -0.80000
O292        O  0.87504602  0.28811176  0.11242198    -0.84200
O293        O  0.91633047  0.35789303  0.12482513    -0.79000
O294        O  0.78987524  0.30134468  0.10080544    -0.80800
O295        O  0.88158161  0.36928136  0.01802767    -0.83500
C296        C  0.90593055  0.36788162  0.14938931     0.97200
C297        C  0.85089555  0.27666051  0.13320087     1.04700
O298        O  0.85732594  0.32974351  0.07845839    -1.12500
O299        O  0.85086557  0.29902871  0.00636789    -0.74900
O300        O  0.88906777  0.29907479  0.03842843    -0.78400
O301        O  0.87684042  0.36125101  0.15071311    -0.79100
C302        C  0.87171390  0.29063728  0.01124223     0.96100
O303        O  0.92072787  0.36859871  0.04993810    -0.77100
O304        O  0.79356965  0.28970181  0.04504747    -0.82300
C305        C  0.82377865  0.37597574  0.07635780     0.98800
C306        C  0.77705154  0.28564572  0.07276885     1.04700
O307        O  0.83385416  0.37170942  0.10556010    -0.77900
C308        C  0.91096122  0.38127527  0.02735497     1.03000
Fe309      Fe  0.99649524  0.24198201  0.74528551     1.65800
Fe310      Fe  0.99673914  0.18036058  0.78887558     1.73200
Fe311      Fe  0.98704247  0.17672228  0.69945519     1.54400
O312        O  0.94726764  0.18186743  0.68896197    -0.81600
O313        O  0.02779901  0.16748178  0.76645821    -0.80000
O314        O  0.95197262  0.22215790  0.72306725    -0.84200
O315        O  0.01886099  0.25764448  0.69742885    -0.79000
O316        O  0.95508284  0.13201006  0.72056666    -0.80800
O317        O  0.03733122  0.22339504  0.80302741    -0.83500
C318        C  0.02643920  0.24673334  0.67122901     0.97200
C319        C  0.93616562  0.19880898  0.70207470     1.04700
O320        O  0.99344297  0.19956925  0.74447424    -1.12500
O321        O  0.96586792  0.19064221  0.81770264    -0.74900
O322        O  0.97501225  0.23628898  0.79350888    -0.78400
O323        O  0.01802840  0.21718743  0.66948804    -0.79100
C324        C  0.96296680  0.21546485  0.81767506     0.96100
O325        O  0.04093935  0.26261184  0.76786167    -0.77100
O326        O  0.95751675  0.13498643  0.77885913    -0.82300
C327        C  0.03741436  0.16477587  0.73616626     0.98800
C328        C  0.94564576  0.11934446  0.75065899     1.04700
O329        O  0.02565684  0.16917846  0.70814673    -0.77900
C330        C  0.05233990  0.25198896  0.79080436     1.03000
Fe331      Fe  0.08458562  0.66596388  0.92190502     1.65800
Fe332      Fe  0.14472165  0.66196846  0.96293833     1.73200
Fe333      Fe  0.14680984  0.67183096  0.87372468     1.54400
O334        O  0.10483094  0.63977067  0.84631356    -0.81600
O335        O  0.19070157  0.70035722  0.95141601    -0.80000
O336        O  0.06916277  0.64904821  0.87199064    -0.84200
O337        O  0.10702547  0.71168044  0.90365599    -0.79000
O338        O  0.15601940  0.63417152  0.88209282    -0.80800
O339        O  0.13686988  0.69434900  0.99199098    -0.83500
C340        C  0.12748201  0.72490829  0.87900942     0.97200
C341        C  0.07765012  0.63819474  0.84656446     1.04700
O342        O  0.12562898  0.66646362  0.91943364    -1.12500
O343        O  0.10014738  0.62206092  0.97705429    -0.74900
O344        O  0.06291299  0.62014547  0.93985434    -0.78400
O345        O  0.14067571  0.71108172  0.86301003    -0.79100
C346        C  0.07238960  0.60727778  0.96234684     0.96100
O347        O  0.08907346  0.68305399  0.97249141    -0.77100
O348        O  0.15611732  0.62972590  0.94049913    -0.82300
C349        C  0.20566518  0.71304247  0.92290975     0.98800
C350        C  0.15986644  0.62162741  0.90986170     1.04700
O351        O  0.19184329  0.70446146  0.89323986    -0.77900
C352        C  0.11141749  0.69591586  0.99481548     1.03000
Fe353      Fe  0.99565476  0.76031477  0.25203819     1.65800
Fe354      Fe  0.99295179  0.81983162  0.20539815     1.73200
Fe355      Fe  0.99656491  0.82306286  0.29506217     1.54400
O356        O  0.96653619  0.78115977  0.32364315    -0.81600
O357        O  0.03288913  0.86494999  0.21640488    -0.80000
O358        O  0.96360013  0.74058527  0.29334680    -0.84200
O359        O  0.03399860  0.77922515  0.28500483    -0.79000
O360        O  0.95657325  0.82656167  0.28248208    -0.80800
O361        O  0.02217462  0.80658923  0.17733505    -0.83500
C362        C  0.04816999  0.80364119  0.30483642     0.97200
C363        C  0.95595179  0.75120342  0.31985977     1.04700
O364        O  0.99517550  0.80110208  0.25077543    -1.12500
O365        O  0.95226860  0.77691218  0.19208700    -0.74900
O366        O  0.95731919  0.73835175  0.21921052    -0.78400
O367        O  0.03719900  0.82229499  0.31091346    -0.79100
C368        C  0.94231272  0.74751854  0.19944952     0.96100
O369        O  0.02759864  0.77192056  0.21088564    -0.77100
O370        O  0.96293044  0.83571766  0.22490467    -0.82300
C371        C  0.03954528  0.88131004  0.24470132     0.98800
C372        C  0.95002586  0.83584981  0.25404739     1.04700
O373        O  0.02669925  0.86855091  0.27403102    -0.77900
C374        C  0.03346829  0.78805600  0.18284571     1.03000
Fe375      Fe  0.90280670  0.57560855  0.58277976     1.65800
Fe376      Fe  0.84042349  0.51440326  0.53902195     1.73200
Fe377      Fe  0.83825876  0.51848045  0.62907490     1.54400
O378        O  0.87915259  0.52731974  0.65762252    -0.81600
O379        O  0.79555581  0.50839491  0.55100762    -0.80000
O380        O  0.91893657  0.56879097  0.63005262    -0.84200
O381        O  0.88348811  0.59998997  0.60648808    -0.79000
O382        O  0.82936604  0.47227038  0.61812730    -0.80800
O383        O  0.85085781  0.55631562  0.51177291    -0.83500
C384        C  0.86131759  0.59163437  0.62932972     0.97200
C385        C  0.90853367  0.54940575  0.65556034     1.04700
O386        O  0.86030845  0.53601785  0.58373457    -1.12500
O387        O  0.88312516  0.51702399  0.52299926    -0.74900
O388        O  0.92218331  0.55109178  0.55955524    -0.78400
O389        O  0.84491254  0.56333445  0.64229936    -0.79100
C390        C  0.91133705  0.52940685  0.53605900     0.96100
O391        O  0.89723477  0.59241789  0.53501705    -0.77100
O392        O  0.82665080  0.46939405  0.55955227    -0.82300
C393        C  0.78002438  0.50324766  0.57960429     0.98800
C394        C  0.82358919  0.45650086  0.58954360     1.04700
O395        O  0.79320994  0.50628605  0.60935390    -0.77900
C396        C  0.87583774  0.58414689  0.51163201     1.03000
C397        C  0.88161622  0.60816253  0.48323608    -0.11900
C398        C  0.85673699  0.60858842  0.46365500     0.03500
C399        C  0.86449930  0.63207338  0.43732362    -0.12500
C400        C  0.89673658  0.65542392  0.42991013     0.18400
C401        C  0.92137648  0.65515383  0.44956787    -0.09500
C402        C  0.91376251  0.63196425  0.47576126    -0.02500
H403        H  0.84524752  0.63206937  0.42244872     0.04900
C404        C  0.90513582  0.67928077  0.40087082     0.20400
H405        H  0.93345591  0.63229790  0.49002266     0.10100
C406        C  0.91838238  0.71212748  0.40877943    -0.15900
C407        C  0.93302786  0.73603853  0.38270932     0.03100
C408        C  0.93513295  0.72728102  0.34758718    -0.11200
C409        C  0.91938824  0.69404056  0.33952686    -0.01200
C410        C  0.90443690  0.67030444  0.36559178    -0.06400
H411        H  0.91872497  0.71932379  0.43582765     0.06100
H412        H  0.91969053  0.68627927  0.31287570     0.09500
Br413      Br  0.96614601  0.68526256  0.44045170    -0.06100
Br414      Br  0.81184175  0.57887777  0.47239859    -0.03000
Br415      Br  0.95123376  0.77990522  0.39805057    -0.00200
Br416      Br  0.88539947  0.62587943  0.35219438    -0.04500
C417        C  0.10636750  0.71232534  0.02517657    -0.11900
C418        C  0.08147916  0.69446972  0.04958693     0.03500
C419        C  0.07335506  0.71030920  0.07506316    -0.12500
C420        C  0.08941433  0.74412667  0.07658807     0.18400
C421        C  0.11481770  0.76207910  0.05267712    -0.09500
C422        C  0.12320082  0.74617817  0.02731291    -0.02500
H423        H  0.05387525  0.69617684  0.09323475     0.04900
C424        C  0.07811736  0.75978234  0.10238050     0.20400
H425        H  0.14193614  0.76026394  0.00835995     0.10100
C426        C  0.09111482  0.76694111  0.13638032    -0.15900
C427        C  0.07819383  0.77795893  0.16246948     0.03100
C428        C  0.05199483  0.78261040  0.15470624    -0.11200
C429        C  0.04004185  0.77680268  0.12014194    -0.01200
C430        C  0.05247061  0.76501695  0.09436727    -0.06400
H431        H  0.11073349  0.76291063  0.14300036     0.06100
H432        H  0.01951357  0.77941805  0.11368867     0.09500
Br433      Br  0.13762614  0.80829458  0.05270063    -0.06100
Br434      Br  0.05755913  0.64817701  0.04866312    -0.03000
Br435      Br  0.09710328  0.78596341  0.20840927    -0.00200
Br436      Br  0.03208160  0.75396120  0.04921374    -0.04500
C437        C  0.93186749  0.55444625  0.68416954    -0.11900
C438        C  0.96439629  0.56417457  0.67655060     0.03500
C439        C  0.98750847  0.57506484  0.70340820    -0.12500
C440        C  0.97908421  0.57639125  0.73840628     0.18400
C441        C  0.94630477  0.56512057  0.74639065    -0.09500
C442        C  0.92306795  0.55415074  0.71947239    -0.02500
H443        H  0.01246451  0.58345489  0.69674277     0.04900
C444        C  0.00510586  0.59195478  0.76547527     0.20400
H445        H  0.89834180  0.54689981  0.72600040     0.10100
C446        C  0.01131523  0.62119329  0.78051225    -0.15900
C447        C  0.03568293  0.63705019  0.80559268     0.03100
C448        C  0.05442127  0.62353001  0.81683727    -0.11200
C449        C  0.04913421  0.59491388  0.80076963    -0.01200
C450        C  0.02487453  0.57925133  0.77522678    -0.06400
H451        H  0.99729564  0.63200503  0.77233404     0.06100
H452        H  0.06328827  0.58421301  0.80876130     0.09500
Br453      Br  0.93219863  0.56471793  0.79365383    -0.06100
Br454      Br  0.97877217  0.56299786  0.62980144    -0.03000
Br455      Br  0.04353780  0.67830888  0.82185668    -0.00200
Br456      Br  0.01888352  0.53997402  0.75527404    -0.04500
C457        C  0.87808789  0.27260033  0.98318019    -0.11900
C458        C  0.89297132  0.25415324  0.99047027     0.03500
C459        C  0.90382483  0.24254429  0.96295725    -0.12500
C460        C  0.90044406  0.24888672  0.92780479     0.18400
C461        C  0.88395854  0.26552576  0.92024726    -0.09500
C462        C  0.87292953  0.27711766  0.94770612    -0.02500
H463        H  0.91599785  0.22934888  0.96910152     0.04900
C464        C  0.91615732  0.23983049  0.89975882     0.20400
H465        H  0.86159155  0.29102442  0.94117093     0.10100
C466        C  0.90429573  0.20721863  0.89135921    -0.15900
C467        C  0.91917294  0.19824092  0.86530845     0.03100
C468        C  0.94645473  0.22222547  0.84697058    -0.11200
C469        C  0.95845673  0.25472837  0.85612036    -0.01200
C470        C  0.94395753  0.26355671  0.88230539    -0.06400
H471        H  0.88321363  0.18867726  0.90496147     0.06100
H472        H  0.97972997  0.27359851  0.84310096     0.09500
Br473      Br  0.87665854  0.27353554  0.87271117    -0.06100
Br474      Br  0.89940290  0.24370229  0.03731664    -0.03000
Br475      Br  0.90019319  0.15318768  0.85499800    -0.00200
Br476      Br  0.96417180  0.30841853  0.89436136    -0.04500
C477        C  0.05002324  0.57341088  0.97103554    -0.11900
C478        C  0.03084105  0.55129122  0.94463506     0.03500
C479        C  0.00857034  0.51964791  0.95368635    -0.12500
C480        C  0.00528923  0.50952931  0.98851853     0.18400
C481        C  0.02503508  0.53096733  0.01472541    -0.09500
C482        C  0.04737934  0.56282789  0.00584519    -0.02500
H483        H  0.99366205  0.50280640  0.93348792     0.04900
C484        C  0.98071966  0.47644297  0.99691909     0.20400
H485        H  0.06220320  0.57948131  0.02621616     0.10100
C486        C  0.98843287  0.45208024  0.99415677    -0.15900
C487        C  0.96561945  0.42033970  0.00274685     0.03100
C488        C  0.93450677  0.41291522  0.01351000    -0.11200
C489        C  0.92658836  0.43725874  0.01488942    -0.01200
C490        C  0.94958549  0.46900149  0.00702694    -0.06400
H491        H  0.01238546  0.45791485  0.98583509     0.06100
H492        H  0.90287898  0.43182595  0.02370393     0.09500
Br493      Br  0.02179079  0.51757907  0.06273222    -0.06100
Br494      Br  0.03483538  0.56192297  0.89549403    -0.03000
Br495      Br  0.97805084  0.38825562  0.99882522    -0.00200
Br496      Br  0.93788542  0.50154612  0.01183659    -0.04500
C497        C  0.04740995  0.47387233  0.47975173    -0.11900
C498        C  0.05510410  0.50608571  0.48497217     0.03500
C499        C  0.03096500  0.51233720  0.49526816    -0.12500
C500        C  0.99934874  0.48704576  0.50043998     0.18400
C501        C  0.99178952  0.45495044  0.49644839    -0.09500
C502        C  0.01583623  0.44854930  0.48616369    -0.02500
H503        H  0.03664755  0.53708631  0.49840480     0.04900
C504        C  0.97458406  0.49499951  0.50924089     0.20400
H505        H  0.00966372  0.42372949  0.48224384     0.10100
C506        C  0.96102739  0.50422688  0.48232430    -0.15900
C507        C  0.93962507  0.51497430  0.49024014     0.03100
C508        C  0.93201394  0.51670205  0.52553342    -0.11200
C509        C  0.94499884  0.50661135  0.55226576    -0.01200
C510        C  0.96627712  0.49587360  0.54435777    -0.06400
H511        H  0.96776682  0.50380052  0.45521518     0.06100
H512        H  0.93870977  0.50731768  0.57942477     0.09500
Br513      Br  0.94881177  0.41940431  0.50325864    -0.06100
Br514      Br  0.09696427  0.54272913  0.47528875    -0.03000
Br515      Br  0.92348306  0.52922886  0.45249453    -0.00200
Br516      Br  0.98438612  0.48384693  0.58223605    -0.04500
C517        C  0.09800117  0.38556921  0.50234482    -0.11900
C518        C  0.06570614  0.36072146  0.50855348     0.03500
C519        C  0.05862851  0.33780959  0.53499892    -0.12500
C520        C  0.08286076  0.33912043  0.55650008     0.18400
C521        C  0.11508450  0.36372167  0.55056978    -0.09500
C522        C  0.12242895  0.38665126  0.52373357    -0.02500
H523        H  0.03368322  0.31951642  0.53984033     0.04900
C524        C  0.07310273  0.31623295  0.58668963     0.20400
H525        H  0.14728002  0.40553822  0.51978049     0.10100
C526        C  0.06343731  0.28368176  0.58101475    -0.15900
C527        C  0.04975697  0.26063717  0.60816633     0.03100
C528        C  0.04492273  0.26998214  0.64199670    -0.11200
C529        C  0.05607572  0.30302576  0.64759037    -0.01200
C530        C  0.06968998  0.32579066  0.62056331    -0.06400
H531        H  0.06580254  0.27596815  0.55493226     0.06100
H532        H  0.05323212  0.31136487  0.67307077     0.09500
Br533      Br  0.14956737  0.36703265  0.57891872    -0.06100
Br534      Br  0.02935809  0.35856753  0.48481445    -0.03000
Br535      Br  0.03739214  0.21702825  0.59639548    -0.00200
Br536      Br  0.08092777  0.36936277  0.63069221    -0.04500
C537        C  0.05168962  0.45455945  0.31009318    -0.11900
C538        C  0.05878217  0.45247863  0.27437857     0.03500
C539        C  0.03460596  0.44274636  0.24857551    -0.12500
C540        C  0.00303204  0.43499252  0.25734213     0.18400
C541        C  0.99642269  0.43889006  0.29249639    -0.09500
C542        C  0.02040627  0.44830109  0.31840585    -0.02500
H543        H  0.04007887  0.43966900  0.22176821     0.04900
C544        C  0.97663730  0.41921903  0.23060003     0.20400
H545        H  0.01427403  0.44985978  0.34541074     0.10100
C546        C  0.95405337  0.38612617  0.23395221    -0.15900
C547        C  0.93023717  0.36960734  0.20837426     0.03100
C548        C  0.92841492  0.38603757  0.17857474    -0.11200
C549        C  0.95052524  0.41924422  0.17540114    -0.01200
C550        C  0.97437176  0.43584458  0.20113877    -0.06400
H551        H  0.95545552  0.37287469  0.25621284     0.06100
H552        H  0.94958211  0.43218683  0.15259157     0.09500
Br553      Br  0.95466260  0.43116186  0.30628757    -0.06100
Br554      Br  0.09981978  0.45886819  0.25952269    -0.03000
Br555      Br  0.90159873  0.32408675  0.21435797    -0.00200
Br556      Br  0.00305056  0.48124063  0.19514852    -0.04500
C557        C  0.90255636  0.19011465  0.69504266    -0.11900
C558        C  0.88643318  0.17570029  0.66343155     0.03500
C559        C  0.85434120  0.16766414  0.65919007    -0.12500
C560        C  0.83807117  0.17373000  0.68596543     0.18400
C561        C  0.85376365  0.18761787  0.71758758    -0.09500
C562        C  0.88575618  0.19571695  0.72192565    -0.02500
H563        H  0.84215506  0.15719095  0.63466896     0.04900
C564        C  0.80523247  0.16691688  0.67942378     0.20400
H565        H  0.89743940  0.20620132  0.74669016     0.10100
C566        C  0.77917646  0.13604864  0.68644469    -0.15900
C567        C  0.74805167  0.12779061  0.67621732     0.03100
C568        C  0.74310166  0.15069803  0.65861168    -0.11200
C569        C  0.76891792  0.18219104  0.65377210    -0.01200
C570        C  0.79997408  0.19037073  0.66386463    -0.06400
H571        H  0.78323166  0.11814909  0.69901295     0.06100
H572        H  0.76524913  0.19995424  0.64025384     0.09500
Br573      Br  0.83249636  0.19615024  0.75524781    -0.06100
Br574      Br  0.90703964  0.16809745  0.62439414    -0.03000
Br575      Br  0.71309305  0.08531479  0.68706326    -0.00200
Br576      Br  0.83479739  0.23309640  0.65387654    -0.04500
C577        C  0.81161828  0.42129836  0.59037134    -0.11900
C578        C  0.78803059  0.40046375  0.61479496     0.03500
C579        C  0.77368776  0.36694699  0.61110320    -0.12500
C580        C  0.78236313  0.35351944  0.58346506     0.18400
C581        C  0.80669576  0.37415134  0.55991734    -0.09500
C582        C  0.82099672  0.40766238  0.56340025    -0.02500
H583        H  0.75486991  0.35118318  0.62930223     0.04900
C584        C  0.76454012  0.31800568  0.57874891     0.20400
H585        H  0.83908457  0.42316927  0.54442142     0.10100
C586        C  0.73832167  0.30382617  0.55550741    -0.15900
C587        C  0.71912783  0.27018557  0.55275701     0.03100
C588        C  0.72624139  0.25014254  0.57332605    -0.11200
C589        C  0.75278552  0.26439306  0.59613244    -0.01200
C590        C  0.77196374  0.29801848  0.59881023    -0.06400
H591        H  0.73211598  0.31901442  0.54032979     0.06100
H592        H  0.75818513  0.24926749  0.61251829     0.09500
Br593      Br  0.82065861  0.35748440  0.52234390    -0.06100
Br594      Br  0.77195604  0.41595846  0.65157212    -0.03000
Br595      Br  0.68163432  0.25282699  0.52330506    -0.00200
Br596      Br  0.80763189  0.31577440  0.63073996    -0.04500
C597        C  0.84026170  0.24479680  0.14882146    -0.11900
C598        C  0.80746876  0.22267907  0.15670920     0.03500
C599        C  0.79822839  0.19112615  0.16623947    -0.12500
C600        C  0.82107976  0.18131103  0.16859338     0.18400
C601        C  0.85382550  0.20360345  0.16244441    -0.09500
C602        C  0.86315103  0.23500082  0.15255949    -0.02500
H603        H  0.77297906  0.17391917  0.17113126     0.04900
C604        C  0.81042465  0.14756573  0.17683648     0.20400
H605        H  0.88842578  0.25168887  0.14716494     0.10100
C606        C  0.81418147  0.12852425  0.15146857    -0.15900
C607        C  0.80699931  0.09722991  0.15943811     0.03100
C608        C  0.79525019  0.08454225  0.19308384    -0.11200
C609        C  0.79005349  0.10318948  0.21780673    -0.01200
C610        C  0.79780403  0.13460464  0.21004353    -0.06400
H611        H  0.82342881  0.13836817  0.12564113     0.06100
H612        H  0.78117372  0.09376398  0.24386653     0.09500
Br613      Br  0.88669600  0.19231295  0.16734154    -0.06100
Br614      Br  0.77349229  0.23260887  0.15276841    -0.03000
Br615      Br  0.81289627  0.07285341  0.12327139    -0.00200
Br616      Br  0.79302970  0.15957658  0.24643789    -0.04500
C617        C  0.77024951  0.05078184  0.35142725    -0.11900
C618        C  0.78768820  0.06099916  0.38342371     0.03500
C619        C  0.77852663  0.07555832  0.40958680    -0.12500
C620        C  0.75234026  0.08051686  0.40480070     0.18400
C621        C  0.73592379  0.07175661  0.37257161    -0.09500
C622        C  0.74492659  0.05730988  0.34648370    -0.02500
H623        H  0.79147392  0.08237971  0.43430911     0.04900
C624        C  0.74059188  0.09210478  0.43452534     0.20400
H625        H  0.73100421  0.05018663  0.32239974     0.10100
C626        C  0.74393150  0.12292207  0.43359955    -0.15900
C627        C  0.73102692  0.13329353  0.46042445     0.03100
C628        C  0.71498689  0.11290080  0.48936315    -0.11200
C629        C  0.71225068  0.08229151  0.49026583    -0.01200
C630        C  0.72434063  0.07171227  0.46312695    -0.06400
H631        H  0.75615347  0.13876837  0.41156107     0.06100
H632        H  0.69927757  0.06573500  0.51154743     0.09500
Br633      Br  0.69938931  0.07682920  0.36380651    -0.06100
Br634      Br  0.82381426  0.05568485  0.39384274    -0.03000
Br635      Br  0.73646690  0.17556073  0.45629025    -0.00200
Br636      Br  0.71565131  0.02808933  0.46481838    -0.04500
C637        C  0.84092194  0.93366350  0.24259936    -0.11900
C638        C  0.86234717  0.93554301  0.21592928     0.03500
C639        C  0.87733192  0.91694873  0.21834248    -0.12500
C640        C  0.87083839  0.89553091  0.24646729     0.18400
C641        C  0.84830931  0.89252883  0.27217817    -0.09500
C642        C  0.83395167  0.91168323  0.27031656    -0.02500
H643        H  0.89475933  0.91977190  0.19849456     0.04900
C644        C  0.88902229  0.87794842  0.24943563     0.20400
H645        H  0.81733537  0.90951058  0.29084869     0.10100
C646        C  0.90902357  0.88348812  0.27866096    -0.15900
C647        C  0.92797711  0.86895312  0.28147449     0.03100
C648        C  0.92744730  0.84850650  0.25445267    -0.11200
C649        C  0.90720478  0.84274311  0.22542354    -0.01200
C650        C  0.88803138  0.85701632  0.22284836    -0.06400
H651        H  0.91055846  0.89994675  0.29903107     0.06100
H652        H  0.90645761  0.82717935  0.20440075     0.09500
Br653      Br  0.83568815  0.86202759  0.30995338    -0.06100
Br654      Br  0.87407465  0.96463413  0.17686594    -0.03000
Br655      Br  0.95623154  0.88043133  0.32127535    -0.00200
Br656      Br  0.86048119  0.84658776  0.18269798    -0.04500
C657        C  0.59687317  0.89106116  0.01775912    -0.11900
C658        C  0.59776633  0.86696906  0.03836566     0.03500
C659        C  0.62165567  0.87575085  0.06449882    -0.12500
C660        C  0.64511773  0.90829381  0.07065379     0.18400
C661        C  0.64425393  0.93212834  0.04996830    -0.09500
C662        C  0.62054066  0.92349273  0.02425098    -0.02500
H663        H  0.62204675  0.85705539  0.07998378     0.04900
C664        C  0.66985983  0.91749372  0.09907158     0.20400
H665        H  0.62066429  0.94271668  0.00929111     0.10100
C666        C  0.70291374  0.93374410  0.09052611    -0.15900
C667        C  0.72693344  0.94729785  0.11660148     0.03100
C668        C  0.71819765  0.94391686  0.15262548    -0.11200
C669        C  0.68497749  0.92580688  0.16094349    -0.01200
C670        C  0.66110959  0.91319560  0.13483355    -0.06400
H671        H  0.71010233  0.93743028  0.06310988     0.06100
H672        H  0.67722465  0.92276727  0.18814844     0.09500
Br673      Br  0.67420781  0.97732000  0.05641319    -0.06100
Br674      Br  0.56827704  0.82181593  0.03127606    -0.03000
Br675      Br  0.77069915  0.97289148  0.10056965    -0.00200
Br676      Br  0.61685331  0.89342523  0.14944112    -0.04500
C677        C  0.55179431  0.93893944  0.81204057    -0.11900
C678        C  0.58261685  0.95417608  0.79593910     0.03500
C679        C  0.59068620  0.97806606  0.77038507    -0.12500
C680        C  0.56877868  0.98777650  0.76044001     0.18400
C681        C  0.53777522  0.97223026  0.77583236    -0.09500
C682        C  0.52937973  0.94784700  0.80119516    -0.02500
H683        H  0.61445466  0.98948635  0.75845974     0.04900
C684        C  0.57907953  0.01433935  0.73421403     0.20400
H685        H  0.50580978  0.93683801  0.81351753     0.10100
C686        C  0.56670859  0.00724912  0.69995057    -0.15900
C687        C  0.57849774  0.03112482  0.67373134     0.03100
C688        C  0.60306971  0.06304285  0.68154571    -0.11200
C689        C  0.61413822  0.07043041  0.71633754    -0.01200
C690        C  0.60260097  0.04641921  0.74240741    -0.06400
H691        H  0.54849158  0.98276529  0.69328400     0.06100
H692        H  0.63329043  0.09455247  0.72285350     0.09500
Br693      Br  0.50715913  0.98528711  0.76455546    -0.06100
Br694      Br  0.61469873  0.94294371  0.80738780    -0.03000
Br695      Br  0.56035349  0.01870756  0.62752984    -0.00200
Br696      Br  0.62040640  0.05827508  0.78871282    -0.04500
C697        C  0.41282385  0.82391471  0.90702601    -0.11900
C698        C  0.39199164  0.79845766  0.88441555     0.03500
C699        C  0.35845198  0.78485134  0.88723273    -0.12500
C700        C  0.34478184  0.79605100  0.91212167     0.18400
C701        C  0.36550212  0.82213958  0.93378716    -0.09500
C702        C  0.39904479  0.83574318  0.93112038    -0.02500
H703        H  0.34283107  0.76454684  0.87068581     0.04900
C704        C  0.30900562  0.77860876  0.91647829     0.20400
H705        H  0.41443403  0.85534437  0.94846148     0.10100
C706        C  0.29511775  0.76252839  0.94814764    -0.15900
C707        C  0.26154428  0.74285129  0.95198367     0.03100
C708        C  0.24092014  0.73795281  0.92313240    -0.11200
C709        C  0.25502690  0.75557064  0.89204484    -0.01200
C710        C  0.28848310  0.77581765  0.88869775    -0.06400
H711        H  0.31062577  0.76465678  0.96987839     0.06100
H712        H  0.24001951  0.75326907  0.86977301     0.09500
Br713      Br  0.34919787  0.84009100  0.96745220    -0.06100
Br714      Br  0.40719569  0.77880972  0.85145864    -0.03000
Br715      Br  0.24630365  0.72291094  0.99707947    -0.00200
Br716      Br  0.30501971  0.79961851  0.84579628    -0.04500
C717        C  0.23842405  0.85270950  0.36147926    -0.11900
C718        C  0.21373500  0.83572144  0.38628739     0.03500
C719        C  0.18219911  0.82688998  0.37792872    -0.12500
C720        C  0.17512002  0.83440036  0.34495187     0.18400
C721        C  0.19954692  0.85020234  0.31962991    -0.09500
C722        C  0.23121434  0.85933721  0.32808925    -0.02500
H723        H  0.16312822  0.81404504  0.39705305     0.04900
C724        C  0.14196210  0.82531513  0.33731154     0.20400
H725        H  0.25027876  0.87224785  0.30899870     0.10100
C726        C  0.13026988  0.84504736  0.34912251    -0.15900
C727        C  0.09926171  0.83817933  0.34030664     0.03100
C728        C  0.07950341  0.81070468  0.31948582    -0.11200
C729        C  0.09125598  0.79022613  0.30949691    -0.01200
C730        C  0.12223795  0.79749608  0.31795859    -0.06400
H731        H  0.14570306  0.86634786  0.36450876     0.06100
H732        H  0.07681054  0.76883065  0.29387845     0.09500
Br733      Br  0.19069741  0.86012224  0.27365460    -0.06100
Br734      Br  0.22174830  0.82296032  0.43122061    -0.03000
Br735      Br  0.08672570  0.86802597  0.35707156    -0.00200
Br736      Br  0.13699514  0.76936588  0.30147290    -0.04500
C737        C  0.41840066  0.94282415  0.47036061    -0.11900
C738        C  0.44232390  0.96325604  0.44604029     0.03500
C739        C  0.47356070  0.98404297  0.45763790    -0.12500
C740        C  0.48161199  0.98421848  0.49289522     0.18400
C741        C  0.45818029  0.96314884  0.51695957    -0.09500
C742        C  0.42673183  0.94262373  0.50556957    -0.02500
H743        H  0.49173187  0.00016069  0.43907933     0.04900
C744        C  0.51413557  0.00805470  0.50427775     0.20400
H745        H  0.40870609  0.92664620  0.52430137     0.10100
C746        C  0.51787431  0.03338109  0.52561724    -0.15900
C747        C  0.54842419  0.05742568  0.53582262     0.03100
C748        C  0.57575710  0.05667422  0.52377742    -0.11200
C749        C  0.57207094  0.03102741  0.50291483    -0.01200
C750        C  0.54133096  0.00670267  0.49297229    -0.06400
H751        H  0.49689605  0.03426219  0.53455404     0.06100
H752        H  0.59305846  0.03000095  0.49435095     0.09500
Br753      Br  0.46820390  0.96105894  0.56526980    -0.06100
Br754      Br  0.43486715  0.96256704  0.39641134    -0.03000
Br755      Br  0.55117472  0.08896307  0.56870778    -0.00200
Br756      Br  0.53740661  0.97174075  0.46488966    -0.04500
C757        C  0.26167859  0.75325776  0.41421998    -0.11900
C758        C  0.26723202  0.73376909  0.39064267     0.03500
C759        C  0.24660996  0.70033595  0.39051393    -0.12500
C760        C  0.22050688  0.68544228  0.41378551     0.18400
C761        C  0.21492409  0.70462904  0.43749060    -0.09500
C762        C  0.23541540  0.73829067  0.43756113    -0.02500
H763        H  0.25167039  0.68564903  0.37293595     0.04900
C764        C  0.20212009  0.64972158  0.41541255     0.20400
H765        H  0.23096150  0.75276219  0.45603340     0.10100
C766        C  0.21460614  0.63429993  0.43570461    -0.15900
C767        C  0.20065609  0.60076909  0.43508536     0.03100
C768        C  0.17306282  0.58168272  0.41415309    -0.11200
C769        C  0.16037978  0.59723095  0.39400205    -0.01200
C770        C  0.17478057  0.63098555  0.39441104    -0.06400
H771        H  0.23618649  0.64861811  0.45111887     0.06100
H772        H  0.13948576  0.58315468  0.37757162     0.09500
Br773      Br  0.18027250  0.68564778  0.47083886    -0.06100
Br774      Br  0.30449496  0.75075952  0.36049299    -0.03000
Br775      Br  0.22297113  0.58331982  0.46051336    -0.00200
Br776      Br  0.15720623  0.65064565  0.36496170    -0.04500
C777        C  0.20770826  0.93471691  0.65430283    -0.11900
C778        C  0.20248354  0.93716733  0.61794732     0.03500
C779        C  0.21393830  0.92408314  0.59255123    -0.12500
C780        C  0.23033898  0.90800017  0.60204215     0.18400
C781        C  0.23384103  0.90369653  0.63801244    -0.09500
C782        C  0.22270890  0.91694520  0.66359612    -0.02500
H783        H  0.21109577  0.92759218  0.56491730     0.04900
C784        C  0.24699912  0.89967111  0.57424510     0.20400
H785        H  0.22689882  0.91422775  0.69099626     0.10100
C786        C  0.27774684  0.92360080  0.56310766    -0.15900
C787        C  0.29404095  0.91787462  0.53599956     0.03100
C788        C  0.27992650  0.88733107  0.51941734    -0.11200
C789        C  0.24927094  0.86304675  0.53105752    -0.01200
C790        C  0.23265497  0.86918915  0.55782224    -0.06400
H791        H  0.28905993  0.94716182  0.57538616     0.06100
H792        H  0.23770292  0.83963364  0.51846257     0.09500
Br793      Br  0.25511669  0.88116775  0.65330596    -0.06100
Br794      Br  0.18226894  0.96003559  0.60015560    -0.03000
Br795      Br  0.33607125  0.95284234  0.52342561    -0.00200
Br796      Br  0.18988437  0.83596334  0.57019297    -0.04500
C797        C  0.17401925  0.91543329  0.82540480    -0.11900
C798        C  0.14208964  0.88919450  0.82386759     0.03500
C799        C  0.13548090  0.85895677  0.83538432    -0.12500
C800        C  0.16004249  0.85478871  0.84925796     0.18400
C801        C  0.19115705  0.88137771  0.85379631    -0.09500
C802        C  0.19813242  0.91147097  0.84128728    -0.02500
H803        H  0.11131763  0.83838896  0.83258045     0.04900
C804        C  0.15295659  0.82217593  0.85724520     0.20400
H805        H  0.22257773  0.93167651  0.84322135     0.10100
C806        C  0.15872223  0.80482266  0.83154036    -0.15900
C807        C  0.15056816  0.77291253  0.83754571     0.03100
C808        C  0.13669895  0.75830274  0.87009980    -0.11200
C809        C  0.13135981  0.77626364  0.89575026    -0.01200
C810        C  0.13902950  0.80777978  0.88937102    -0.06400
H811        H  0.16902249  0.81601072  0.80645938     0.06100
H812        H  0.12104247  0.76581047  0.92107674     0.09500
Br813      Br  0.22457563  0.87738963  0.87653947    -0.06100
Br814      Br  0.10713032  0.89218774  0.80364368    -0.03000
Br815      Br  0.15733403  0.75064553  0.79953297    -0.00200
Br816      Br  0.12957411  0.83011066  0.92494542    -0.04500
C817        C  0.14533078  0.06636043  0.74094542    -0.11900
C818        C  0.16030286  0.09681808  0.75751111     0.03500
C819        C  0.14687405  0.11678027  0.75436933    -0.12500
C820        C  0.11798062  0.10661179  0.73584628     0.18400
C821        C  0.10332693  0.07634774  0.71894853    -0.09500
C822        C  0.11714776  0.05683285  0.72132985    -0.02500
H823        H  0.15872002  0.14016008  0.76707904     0.04900
C824        C  0.10215051  0.12652139  0.73607872     0.20400
H825        H  0.10504913  0.03343419  0.70869056     0.10100
C826        C  0.09527554  0.13663861  0.70425414    -0.15900
C827        C  0.07559436  0.15053022  0.70320038     0.03100
C828        C  0.06234187  0.15471530  0.73472144    -0.11200
C829        C  0.07183239  0.14709997  0.76667227    -0.01200
C830        C  0.09134443  0.13325284  0.76759671    -0.06400
H831        H  0.10435127  0.13260199  0.67987412     0.06100
H832        H  0.06303409  0.15069521  0.79146675     0.09500
Br833      Br  0.06315594  0.05927871  0.69416459    -0.06100
Br834      Br  0.19942055  0.11277536  0.78394102    -0.03000
Br835      Br  0.06790342  0.16254351  0.65771504    -0.00200
Br836      Br  0.10027646  0.12195981  0.81287092    -0.04500
C837        C  0.51730374  0.94870794  0.97231583    -0.11900
C838        C  0.48816372  0.93980961  0.99029324     0.03500
C839        C  0.47970851  0.96310343  0.99698111    -0.12500
C840        C  0.50004362  0.99511730  0.98672305     0.18400
C841        C  0.52983982  0.00452064  0.97091230    -0.09500
C842        C  0.53814368  0.98132436  0.96348099    -0.02500
H843        H  0.45712174  0.95626125  0.01018219     0.04900
C844        C  0.49058177  0.01881002  0.99471221     0.20400
H845        H  0.56098449  0.98889318  0.95051487     0.10100
C846        C  0.49797118  0.03301533  0.02790132    -0.15900
C847        C  0.48833610  0.05476995  0.03726425     0.03100
C848        C  0.47133154  0.06262808  0.01299112    -0.11200
C849        C  0.46469778  0.04917344  0.97933436    -0.01200
C850        C  0.47395199  0.02689070  0.97014912    -0.06400
H851        H  0.51089858  0.02679377  0.04668912     0.06100
H852        H  0.45136797  0.05506626  0.96078069     0.09500
Br853      Br  0.55991300  0.04875778  0.95953400    -0.06100
Br854      Br  0.45819485  0.89668751  0.00570204    -0.03000
Br855      Br  0.49888471  0.07315431  0.08354292    -0.00200
Br856      Br  0.46227643  0.00700763  0.92474952    -0.04500
C857        C  0.38419684  0.11386000  0.97344785    -0.11900
C858        C  0.37282389  0.08582643  0.95271648     0.03500
C859        C  0.35066921  0.07950802  0.92585338    -0.12500
C860        C  0.33896131  0.10041297  0.91918910     0.18400
C861        C  0.35024499  0.12851078  0.93967521    -0.09500
C862        C  0.37310981  0.13532601  0.96629749    -0.02500
H863        H  0.34212201  0.05781523  0.91029247     0.04900
C864        C  0.31420541  0.09120496  0.89139788     0.20400
H865        H  0.38142959  0.15682041  0.98212204     0.10100
C866        C  0.28165661  0.07741650  0.90090938    -0.15900
C867        C  0.25700554  0.06186328  0.87597474     0.03100
C868        C  0.26487397  0.05939607  0.84058927    -0.11200
C869        C  0.29771287  0.07551623  0.83091396    -0.01200
C870        C  0.32215184  0.09132443  0.85582549    -0.06400
H871        H  0.27532237  0.07728583  0.92830062     0.06100
H872        H  0.30456925  0.07488475  0.80390541     0.09500
Br873      Br  0.33478413  0.15781177  0.93226997    -0.06100
Br874      Br  0.38718437  0.05544227  0.95933928    -0.03000
Br875      Br  0.21350996  0.04251409  0.89316967    -0.00200
Br876      Br  0.36620640  0.11184480  0.84039519    -0.04500
C877        C  0.43541039  0.05674962  0.17171425    -0.11900
C878        C  0.41893037  0.02300869  0.16560383     0.03500
C879        C  0.41021125  0.00132903  0.19389365    -0.12500
C880        C  0.41745123  0.01239415  0.22863767     0.18400
C881        C  0.43553546  0.04594767  0.23459434    -0.09500
C882        C  0.44444424  0.06770527  0.20637444    -0.02500
H883        H  0.39674533  0.97562536  0.18882124     0.04900
C884        C  0.40369529  0.98876526  0.25825913     0.20400
H885        H  0.45713524  0.09333885  0.21183083     0.10100
C886        C  0.41672595  0.96921857  0.26705023    -0.15900
C887        C  0.40361055  0.94650597  0.29463292     0.03100
C888        C  0.37644035  0.94253212  0.31360003    -0.11200
C889        C  0.36375244  0.96237790  0.30465128    -0.01200
C890        C  0.37699165  0.98512503  0.27752523    -0.06400
H891        H  0.43747081  0.97196712  0.25272864     0.06100
H892        H  0.34296134  0.95995913  0.31860277     0.09500
Br893      Br  0.44759672  0.06315461  0.28109602    -0.06100
Br894      Br  0.40785551  0.00486304  0.11925575    -0.03000
Br895      Br  0.42524354  0.92346269  0.30669755    -0.00200
Br896      Br  0.35707993  0.01020469  0.26729894    -0.04500
C897        C  0.56857661  0.17936952  0.07728436    -0.11900
C898        C  0.58536057  0.17458056  0.10497176     0.03500
C899        C  0.61907605  0.18832606  0.10302787    -0.12500
C900        C  0.63677585  0.20716380  0.07405208     0.18400
C901        C  0.62008529  0.21134122  0.04620068    -0.09500
C902        C  0.58651802  0.19736677  0.04781827    -0.02500
H903        H  0.63172050  0.18509028  0.12474468     0.04900
C904        C  0.67270809  0.22544891  0.07493083     0.20400
H905        H  0.57457938  0.20183470  0.02628543     0.10100
C906        C  0.69074679  0.21726280  0.05244479    -0.15900
C907        C  0.72468903  0.23610316  0.05108270     0.03100
C908        C  0.74123622  0.26354524  0.07294984    -0.11200
C909        C  0.72283387  0.27115133  0.09566508    -0.01200
C910        C  0.68914802  0.25276877  0.09646166    -0.06400
H911        H  0.67831399  0.19643404  0.03546228     0.06100
H912        H  0.73463819  0.29233870  0.11222064     0.09500
Br913      Br  0.64246933  0.23833689  0.00669611    -0.06100
Br914      Br  0.56398073  0.14952311  0.14596449    -0.03000
Br915      Br  0.74677060  0.22266884  0.01940305    -0.00200
Br916      Br  0.66641276  0.26745326  0.12548809    -0.04500
C917        C  0.37331770  0.13538540  0.13720084    -0.11900
C918        C  0.37153174  0.14187692  0.17299084     0.03500
C919        C  0.34948775  0.15099884  0.18372226    -0.12500
C920        C  0.32913820  0.15348080  0.15927439     0.18400
C921        C  0.33011500  0.14607032  0.12386479    -0.09500
C922        C  0.35207883  0.13703703  0.11307342    -0.02500
H923        H  0.34831303  0.15637423  0.21110526     0.04900
C924        C  0.30785319  0.16510798  0.17082910     0.20400
H925        H  0.35314548  0.13216446  0.08546652     0.10100
C926        C  0.31905411  0.19820917  0.16908193    -0.15900
C927        C  0.29930686  0.21021976  0.17953596     0.03100
C928        C  0.26755644  0.18857606  0.19090222    -0.11200
C929        C  0.25648119  0.15541620  0.19241825    -0.01200
C930        C  0.27661165  0.14364385  0.18307426    -0.06400
H931        H  0.34327988  0.21469018  0.15973075     0.06100
H932        H  0.23243526  0.13871552  0.20210420     0.09500
Br933      Br  0.30246518  0.14870904  0.08932086    -0.06100
Br934      Br  0.39728465  0.13738256  0.20851885    -0.03000
Br935      Br  0.31677403  0.25599926  0.17692152    -0.00200
Br936      Br  0.26094019  0.09842637  0.18862000    -0.04500
C937        C  0.18487822  0.28336856  0.30897640    -0.11900
C938        C  0.18465293  0.30415543  0.28283159     0.03500
C939        C  0.17400851  0.32536331  0.29103151    -0.12500
C940        C  0.16438112  0.32700081  0.32509355     0.18400
C941        C  0.16537204  0.30720887  0.35163606    -0.09500
C942        C  0.17502320  0.28498396  0.34329480    -0.02500
H943        H  0.17351964  0.34096485  0.27078455     0.04900
C944        C  0.15461287  0.35065138  0.33226791     0.20400
H945        H  0.17530560  0.26936204  0.36361280     0.10100
C946        C  0.12351079  0.34360571  0.32297718    -0.15900
C947        C  0.11389602  0.36618701  0.32872055     0.03100
C948        C  0.13581243  0.39618062  0.34372435    -0.11200
C949        C  0.16736596  0.40356939  0.35156779    -0.01200
C950        C  0.17687449  0.38099908  0.34589446    -0.06400
H951        H  0.10675164  0.32050356  0.31132974     0.06100
H952        H  0.18432097  0.42651760  0.36339284     0.09500
Br953      Br  0.15442671  0.31051092  0.39934883    -0.06100
Br954      Br  0.19707398  0.30433490  0.23491223    -0.03000
Br955      Br  0.07128865  0.35554382  0.31456816    -0.00200
Br956      Br  0.22031376  0.39235995  0.35716686    -0.04500
C957        C  0.14672221  0.08923716  0.26228754    -0.11900
C958        C  0.12592589  0.06863909  0.28889945     0.03500
C959        C  0.11143817  0.03497864  0.28546886    -0.12500
C960        C  0.11770825  0.02104088  0.25623072     0.18400
C961        C  0.13972899  0.04167538  0.23063656    -0.09500
C962        C  0.15368150  0.07521711  0.23363044    -0.02500
H963        H  0.09447401  0.01953436  0.30533005     0.04900
C964        C  0.09983578  0.98514281  0.25194987     0.20400
H965        H  0.16984228  0.09047057  0.21309770     0.10100
C966        C  0.07910138  0.97106594  0.22308624    -0.15900
C967        C  0.06053994  0.93739630  0.21910722     0.03100
C968        C  0.06230719  0.91686002  0.24446336    -0.11200
C969        C  0.08338059  0.93102115  0.27304182    -0.01200
C970        C  0.10205955  0.96462893  0.27685310    -0.06400
H971        H  0.07665361  0.98640493  0.20398431     0.06100
H972        H  0.08499308  0.91575673  0.29294955     0.09500
Br973      Br  0.15201827  0.02527281  0.19129359    -0.06100
Br974      Br  0.11426801  0.08466518  0.32914396    -0.03000
Br975      Br  0.03097044  0.92104895  0.18042348    -0.00200
Br976      Br  0.13052389  0.98124389  0.31639132    -0.04500
C977        C  0.07861302  0.15778538  0.24907113    -0.11900
C978        C  0.05847112  0.13978295  0.22076319     0.03500
C979        C  0.02479902  0.12478470  0.22408574    -0.12500
C980        C  0.01030770  0.12765111  0.25492959     0.18400
C981        C  0.03037270  0.14657873  0.28261994    -0.09500
C982        C  0.06399179  0.16123873  0.27958720    -0.02500
H983        H  0.00973434  0.11003904  0.20270498     0.04900
C984        C  0.97436806  0.10928296  0.25820203     0.20400
H985        H  0.07879670  0.17509854  0.30155402     0.10100
C986        C  0.95967290  0.08554509  0.28436590    -0.15900
C987        C  0.92598109  0.06592037  0.28645190     0.03100
C988        C  0.90609851  0.06928306  0.26147975    -0.11200
C989        C  0.92082070  0.09349372  0.23576965    -0.01200
C990        C  0.95448856  0.11360345  0.23427773    -0.06400
H991        H  0.97455071  0.08161754  0.30269903     0.06100
H992        H  0.90605279  0.09664593  0.21654411     0.09500
Br993      Br  0.01316339  0.15355755  0.32505836    -0.06100
Br994      Br  0.07480339  0.13244127  0.17779557    -0.03000
Br995      Br  0.90897875  0.03314114  0.32214429    -0.00200
Br996      Br  0.97220422  0.14710658  0.19949632    -0.04500
C997        C  0.38418436  0.23706136  0.64041803    -0.11900
C998        C  0.36708304  0.21406350  0.61395733     0.03500
C999        C  0.34620839  0.18209042  0.62315803    -0.12500
C1000       C  0.34215056  0.17255470  0.65827081     0.18400
C1001       C  0.36009811  0.19494781  0.68463427    -0.09500
C1002       C  0.38116169  0.22709660  0.67553910    -0.02500
H1003       H  0.33251686  0.16462404  0.60288262     0.04900
C1004       C  0.31694554  0.13971402  0.66679456     0.20400
H1005       H  0.39450612  0.24447794  0.69598552     0.10100
C1006       C  0.32392472  0.11477361  0.66581451    -0.15900
C1007       C  0.29985398  0.08309466  0.67297305     0.03100
C1008       C  0.26828919  0.07633887  0.68090094    -0.11200
C1009       C  0.26131326  0.10139504  0.68050462    -0.01200
C1010       C  0.28542723  0.13295713  0.67369874    -0.06400
H1011       H  0.34813180  0.12002564  0.65957372     0.06100
H1012       H  0.23733325  0.09668653  0.68702083     0.09500
Br1013     Br  0.35569305  0.18269243  0.73315768    -0.06100
Br1014     Br  0.37190030  0.22421598  0.56472241    -0.03000
Br1015     Br  0.31132548  0.05020202  0.67051417    -0.00200
Br1016     Br  0.27451411  0.16626788  0.67485479    -0.04500
C1017       C  0.38762305  0.28872880  0.48626706    -0.11900
C1018       C  0.37146437  0.30397160  0.47231727     0.03500
C1019       C  0.34733547  0.28835098  0.44705572    -0.12500
C1020       C  0.33891810  0.25759749  0.43473820     0.18400
C1021       C  0.35598705  0.24287256  0.44734835    -0.09500
C1022       C  0.38013599  0.25843182  0.47295738    -0.02500
H1023       H  0.33516439  0.30039619  0.43672917     0.04900
C1024       C  0.31327008  0.24236250  0.40758052     0.20400
H1025       H  0.39235403  0.24642601  0.48321992     0.10100
C1026       C  0.32205848  0.24144876  0.37268453    -0.15900
C1027       C  0.29937463  0.23170317  0.34550818     0.03100
C1028       C  0.26691575  0.22254692  0.35294404    -0.11200
C1029       C  0.25778930  0.22161989  0.38825504    -0.01200
C1030       C  0.28065806  0.23164171  0.41537479    -0.06400
H1031       H  0.34700549  0.24943601  0.36638802     0.06100
H1032       H  0.23313739  0.21472369  0.39467860     0.09500
Br1033     Br  0.34615892  0.20108908  0.43120641    -0.06100
Br1034     Br  0.38261206  0.34700728  0.48548316    -0.03000
Br1035     Br  0.31446338  0.23146482  0.29880735    -0.00200
Br1036     Br  0.26655889  0.23125883  0.46264085    -0.04500
C1037       C  0.57233561  0.40466472  0.59448287    -0.11900
C1038       C  0.59288624  0.40829193  0.62296679     0.03500
C1039       C  0.62645455  0.42802560  0.61936268    -0.12500
C1040       C  0.64056731  0.44555906  0.58842015     0.18400
C1041       C  0.61997098  0.44341636  0.56082800    -0.09500
C1042       C  0.58652275  0.42323144  0.56404871    -0.02500
H1043       H  0.64177802  0.42886256  0.64068369     0.04900
C1044       C  0.67655335  0.46355223  0.58453633     0.20400
H1045       H  0.57153697  0.42157542  0.54198182     0.10100
C1046       C  0.69053884  0.45639919  0.55605216    -0.15900
C1047       C  0.72408656  0.47062868  0.55260809     0.03100
C1048       C  0.74477116  0.49183929  0.57882813    -0.11200
C1049       C  0.73081427  0.49941724  0.60706530    -0.01200
C1050       C  0.69725475  0.48585837  0.60991075    -0.06400
H1051       H  0.67518661  0.43876329  0.53676609     0.06100
H1052       H  0.74610984  0.51577185  0.62735509     0.09500
Br1053     Br  0.63582619  0.46726119  0.51781782    -0.06100
Br1054     Br  0.57763979  0.38624992  0.66709932    -0.03000
Br1055     Br  0.73943243  0.45771872  0.51273665    -0.00200
Br1056     Br  0.68125142  0.49905672  0.64892331    -0.04500
C1057       C  0.59192350  0.18250705  0.58180774    -0.11900
C1058       C  0.57346244  0.17909976  0.55143656     0.03500
C1059       C  0.55477844  0.19388384  0.54991209    -0.12500
C1060       C  0.55539583  0.21369994  0.57722914     0.18400
C1061       C  0.57443706  0.21786338  0.60708934    -0.09500
C1062       C  0.59178576  0.20169648  0.60954434    -0.02500
H1063       H  0.54028500  0.19059001  0.52679027     0.04900
C1064       C  0.53644901  0.23020698  0.57413076     0.20400
H1065       H  0.60676429  0.20568938  0.63239944     0.10100
C1066       C  0.51157240  0.22282936  0.59829734    -0.15900
C1067       C  0.49530265  0.24012380  0.59857871     0.03100
C1068       C  0.50398794  0.26552695  0.57437853    -0.11200
C1069       C  0.52721706  0.27123190  0.54852709    -0.01200
C1070       C  0.54341540  0.25383489  0.54822814    -0.06400
H1071       H  0.50528392  0.20397237  0.61754587     0.06100
H1072       H  0.53413607  0.29050719  0.52966762     0.09500
Br1073     Br  0.58006113  0.24784333  0.64357199    -0.06100
Br1074     Br  0.57301031  0.15532707  0.51066321    -0.03000
Br1075     Br  0.46111437  0.22749653  0.63226733    -0.00200
Br1076     Br  0.57650964  0.26508989  0.51354988    -0.04500
C1077       C  0.38715243  0.45241147  0.82054831    -0.11900
C1078       C  0.41319580  0.44766090  0.82880500     0.03500
C1079       C  0.42515134  0.43508554  0.80352149    -0.12500
C1080       C  0.41181679  0.42722914  0.76973301     0.18400
C1081       C  0.38747054  0.43414162  0.76071593    -0.09500
C1082       C  0.37552429  0.44676093  0.78590754    -0.02500
H1083       H  0.44417934  0.43031961  0.81066213     0.04900
C1084       C  0.42145669  0.40937578  0.74527336     0.20400
H1085       H  0.35558699  0.45016482  0.77890679     0.10100
C1086       C  0.39920168  0.37691545  0.73796796    -0.15900
C1087       C  0.40643274  0.35951897  0.71378164     0.03100
C1088       C  0.43626667  0.37468112  0.69578764    -0.11200
C1089       C  0.45937006  0.40654162  0.70471779    -0.01200
C1090       C  0.45220675  0.42385290  0.72935816    -0.06400
H1091       H  0.37594119  0.36508919  0.75104869     0.06100
H1092       H  0.48251359  0.41845673  0.69142672     0.09500
Br1093     Br  0.36891496  0.42562264  0.71461750    -0.06100
Br1094     Br  0.43327455  0.45763463  0.87423110    -0.03000
Br1095     Br  0.37524085  0.31461435  0.70733393    -0.00200
Br1096     Br  0.48447892  0.46761655  0.73921879    -0.04500
C1097       C  0.27116141  0.39024205  0.01083384    -0.11900
C1098       C  0.25560668  0.39533541  0.03973226     0.03500
C1099       C  0.24234393  0.37234438  0.06694485    -0.12500
C1100       C  0.24392198  0.34393853  0.06610420     0.18400
C1101       C  0.25826307  0.33821604  0.03690889    -0.09500
C1102       C  0.27146734  0.36098033  0.00978092    -0.02500
H1103       H  0.23121855  0.37694611  0.08930683     0.04900
C1104       C  0.23305370  0.32168255  0.09687543     0.20400
H1105       H  0.28318853  0.35608408  0.98828689     0.10100
C1106       C  0.20378905  0.29216165  0.09580637    -0.15900
C1107       C  0.19468253  0.26939155  0.12316293     0.03100
C1108       C  0.21522145  0.27598988  0.15258867    -0.11200
C1109       C  0.24407146  0.30623070  0.15365202    -0.01200
C1110       C  0.25305317  0.32864678  0.12633081    -0.06400
H1111       H  0.18823095  0.28650956  0.07313547     0.06100
H1112       H  0.26058917  0.31237385  0.17547710     0.09500
Br1113     Br  0.26227636  0.30048232  0.03414483    -0.06100
Br1114     Br  0.25114884  0.43270029  0.04371293    -0.03000
Br1115     Br  0.15414562  0.23004699  0.11796368    -0.00200
Br1116     Br  0.29410809  0.36771544  0.12936865    -0.04500
C1117       C  0.24594020  0.38453792  0.84814252    -0.11900
C1118       C  0.22796700  0.35453749  0.86570447     0.03500
C1119       C  0.19738537  0.33205631  0.85355244    -0.12500
C1120       C  0.18420627  0.33887572  0.82445261     0.18400
C1121       C  0.20229511  0.36797712  0.80611523    -0.09500
C1122       C  0.23302217  0.39052333  0.81792383    -0.02500
H1123       H  0.18317180  0.30962882  0.86776956     0.04900
C1124       C  0.15049346  0.31639631  0.81565306     0.20400
H1125       H  0.24648758  0.41318726  0.80395492     0.10100
C1126       C  0.12716548  0.32439230  0.82504226    -0.15900
C1127       C  0.09465973  0.30316856  0.81803366     0.03100
C1128       C  0.08539195  0.27337800  0.80208857    -0.11200
C1129       C  0.10866690  0.26513686  0.79330168    -0.01200
C1130       C  0.14122924  0.28662870  0.79969165    -0.06400
H1131       H  0.13433361  0.34720615  0.83778715     0.06100
H1132       H  0.10158355  0.24245057  0.78027208     0.09500
Br1133     Br  0.18558466  0.37813005  0.76546994    -0.06100
Br1134     Br  0.24147253  0.34331244  0.90830094    -0.03000
Br1135     Br  0.06373540  0.31537724  0.83130125    -0.00200
Br1136     Br  0.17236213  0.27528997  0.78462630    -0.04500
C1137       C  0.47840187  0.75392466  0.92102434    -0.11900
C1138       C  0.45426724  0.73357347  0.94535523     0.03500
C1139       C  0.43917063  0.69996762  0.94209859    -0.12500
C1140       C  0.44792443  0.68549517  0.91560641     0.18400
C1141       C  0.47262815  0.70563275  0.89194516    -0.09500
C1142       C  0.48737893  0.73933041  0.89466274    -0.02500
H1143       H  0.41981454  0.68491164  0.96007779     0.04900
C1144       C  0.42984151  0.64953179  0.91245558     0.20400
H1145       H  0.50582791  0.75423929  0.87571170     0.10100
C1146       C  0.41325034  0.63490382  0.88123429    -0.15900
C1147       C  0.39385063  0.60122435  0.87834668     0.03100
C1148       C  0.38989877  0.58132240  0.90750407    -0.11200
C1149       C  0.40690722  0.59602920  0.93850508    -0.01200
C1150       C  0.42690513  0.62954148  0.94104632    -0.06400
H1151       H  0.41468819  0.64981708  0.85922668     0.06100
H1152       H  0.40457634  0.58131255  0.96113124     0.09500
Br1153     Br  0.48747726  0.68839162  0.85575250    -0.06100
Br1154     Br  0.43863275  0.74938608  0.98226821    -0.03000
Br1155     Br  0.37165933  0.58439565  0.83473062    -0.00200
Br1156     Br  0.45005494  0.64659478  0.98414774    -0.04500
C1157       C  0.25244275  0.50755366  0.91575566    -0.11900
C1158       C  0.23418883  0.50528026  0.88557412     0.03500
C1159       C  0.21658487  0.52135980  0.88443613    -0.12500
C1160       C  0.21664383  0.53994384  0.91289206     0.18400
C1161       C  0.23347753  0.54098116  0.94358767    -0.09500
C1162       C  0.25097599  0.52479817  0.94490043    -0.02500
H1163       H  0.20329101  0.51990675  0.86092167     0.04900
C1164       C  0.20038798  0.55930525  0.90953241     0.20400
H1165       H  0.26489439  0.52718691  0.96818829     0.10100
C1166       C  0.17223509  0.55067366  0.92887683    -0.15900
C1167       C  0.15778898  0.56982281  0.92806852     0.03100
C1168       C  0.17114772  0.59798531  0.90713227    -0.11200
C1169       C  0.19861830  0.60588145  0.88675267    -0.01200
C1170       C  0.21339961  0.58705599  0.88812272    -0.06400
H1171       H  0.16185557  0.52932086  0.94524076     0.06100
H1172       H  0.20967762  0.62774551  0.87118456     0.09500
Br1173     Br  0.23532868  0.56632377  0.98340486    -0.06100
Br1174     Br  0.23173341  0.48021470  0.84516532    -0.03000
Br1175     Br  0.11964964  0.55623104  0.95588099    -0.00200
Br1176     Br  0.25291946  0.60166357  0.86262295    -0.04500
C1177       C  0.71446271  0.80809435  0.81198075    -0.11900
C1178       C  0.68225499  0.78528064  0.82070011     0.03500
C1179       C  0.66138662  0.79598120  0.83080926    -0.12500
C1180       C  0.67196275  0.82894980  0.83127162     0.18400
C1181       C  0.70380440  0.85170802  0.82208854    -0.09500
C1182       C  0.72495799  0.84117830  0.81296908    -0.02500
H1183       H  0.63668328  0.77856196  0.83789684     0.04900
C1184       C  0.64935317  0.83913735  0.84166408     0.20400
H1185       H  0.74942169  0.85890519  0.80539581     0.10100
C1186       C  0.64353135  0.84033442  0.87741406    -0.15900
C1187       C  0.62175185  0.84954495  0.88837251     0.03100
C1188       C  0.60567474  0.85774601  0.86303189    -0.11200
C1189       C  0.61126466  0.85605409  0.82721852    -0.01200
C1190       C  0.63309596  0.84684186  0.81638566    -0.06400
H1191       H  0.65579374  0.83381979  0.89675907     0.06100
H1192       H  0.59884552  0.86217752  0.80769048     0.09500
Br1193     Br  0.71902050  0.89712557  0.82056492    -0.06100
Br1194     Br  0.66543530  0.73954083  0.81988864    -0.03000
Br1195     Br  0.61348114  0.84826173  0.93794941    -0.00200
Br1196     Br  0.63979889  0.84473069  0.76702837    -0.04500
C1197       C  0.85316540  0.61574767  0.63969438    -0.11900
C1198       C  0.84453109  0.63100356  0.61390963     0.03500
C1199       C  0.83666860  0.65392511  0.62385383    -0.12500
C1200       C  0.83686624  0.66153041  0.65920234     0.18400
C1201       C  0.84519610  0.64627436  0.68518499    -0.09500
C1202       C  0.85330328  0.62330133  0.67525315    -0.02500
H1203       H  0.82943535  0.66523186  0.60405165     0.04900
C1204       C  0.82549006  0.68346440  0.66820648     0.20400
H1205       H  0.85971201  0.61138972  0.69513459     0.10100
C1206       C  0.79232895  0.67068288  0.67255619    -0.15900
C1207       C  0.78007480  0.69085071  0.67949432     0.03100
C1208       C  0.80149440  0.72434607  0.68263306    -0.11200
C1209       C  0.83467128  0.73711139  0.67676315    -0.01200
C1210       C  0.84674282  0.71685404  0.66935356    -0.06400
H1211       H  0.77593021  0.64490286  0.67017872     0.06100
H1212       H  0.85143239  0.76279037  0.67912375     0.09500
Br1213     Br  0.84520552  0.65583747  0.73410206    -0.06100
Br1214     Br  0.84010404  0.61943122  0.56516933    -0.03000
Br1215     Br  0.73401304  0.67132767  0.68272836    -0.00200
Br1216     Br  0.89218125  0.73553780  0.66114167    -0.04500
C1217       C  0.83512313  0.91292670  0.74225268    -0.11900
C1218       C  0.85696139  0.93333783  0.71622734     0.03500
C1219       C  0.87071797  0.96685367  0.71881568    -0.12500
C1220       C  0.86320481  0.98072752  0.74697230     0.18400
C1221       C  0.84021071  0.96041263  0.77195177    -0.09500
C1222       C  0.82668525  0.92687039  0.76970599    -0.02500
H1223       H  0.88842191  0.98228237  0.69950783     0.04900
C1224       C  0.88160611  0.01635592  0.75099414     0.20400
H1225       H  0.80975930  0.91162593  0.78971234     0.10100
C1226       C  0.87588673  0.03571002  0.72796495    -0.15900
C1227       C  0.89538924  0.06944288  0.72862511     0.03100
C1228       C  0.92129471  0.08440104  0.75259308    -0.11200
C1229       C  0.92612814  0.06497303  0.77651696    -0.01200
C1230       C  0.90679890  0.03128440  0.77562793    -0.06400
H1231       H  0.85655904  0.02449397  0.70897814     0.06100
H1232       H  0.94612165  0.07590488  0.79473751     0.09500
Br1233     Br  0.82674514  0.97751926  0.80954644    -0.06100
Br1234     Br  0.87167397  0.91738634  0.67855549    -0.03000
Br1235     Br  0.88517335  0.09388962  0.69664959    -0.00200
Br1236     Br  0.91745438  0.00652467  0.80658536    -0.04500
C1237       C  0.90358771  0.84504264  0.74844424    -0.11900
C1238       C  0.92072990  0.83941707  0.77505708     0.03500
C1239       C  0.95450778  0.85492448  0.77346265    -0.12500
C1240       C  0.97159887  0.87580506  0.74566831     0.18400
C1241       C  0.95467902  0.88055810  0.71861559    -0.09500
C1242       C  0.92111849  0.86523384  0.72006462    -0.02500
H1243       H  0.96756859  0.85112612  0.79428466     0.04900
C1244       C  0.00713764  0.89443488  0.74631705     0.20400
H1245       H  0.90884737  0.87020603  0.69932089     0.10100
C1246       C  0.02492744  0.88357387  0.72743719    -0.15900
C1247       C  0.05869956  0.90212927  0.72573559     0.03100
C1248       C  0.07503290  0.93215435  0.74316158    -0.11200
C1249       C  0.05689161  0.94256893  0.76235815    -0.01200
C1250       C  0.02334703  0.92411003  0.76395561    -0.06400
H1251       H  0.01242841  0.86065630  0.71378135     0.06100
H1252       H  0.06883533  0.96563389  0.77575072     0.09500
Br1253     Br  0.97663154  0.90922653  0.68009991    -0.06100
Br1254     Br  0.89994907  0.81056693  0.81376297    -0.03000
Br1255     Br  0.08099863  0.88449458  0.70082857    -0.00200
Br1256     Br  0.00055429  0.94091447  0.78953715    -0.04500
C1257       C  0.91066448  0.72244789  0.18712385    -0.11900
C1258       C  0.89791690  0.72403883  0.15446563     0.03500
C1259       C  0.86651603  0.70041257  0.14580627    -0.12500
C1260       C  0.84774625  0.67542754  0.16944494     0.18400
C1261       C  0.86088344  0.67314886  0.20144596    -0.09500
C1262       C  0.89212646  0.69660795  0.21004317    -0.02500
H1263       H  0.85657065  0.70162314  0.12078622     0.04900
C1264       C  0.81436760  0.65207881  0.16045956     0.20400
H1265       H  0.90158277  0.69513091  0.23533763     0.10100
C1266       C  0.80569909  0.61991410  0.15496976    -0.15900
C1267       C  0.77407245  0.59691888  0.14663208     0.03100
C1268       C  0.75070671  0.60634358  0.14351613    -0.11200
C1269       C  0.75960391  0.63868180  0.14892302    -0.01200
C1270       C  0.79119177  0.66155586  0.15740797    -0.06400
H1271       H  0.82376517  0.61279560  0.15685452     0.06100
H1272       H  0.74189949  0.64622460  0.14642552     0.09500
Br1273     Br  0.83686577  0.63951327  0.23510421    -0.06100
Br1274     Br  0.92246350  0.75683350  0.12027983    -0.03000
Br1275     Br  0.76541829  0.55400284  0.13730859    -0.00200
Br1276     Br  0.80130304  0.70518937  0.16510773    -0.04500
C1277       C  0.77239182  0.72549624  0.84790532    -0.11900
C1278       C  0.77234212  0.69639861  0.84239630     0.03500
C1279       C  0.76159703  0.67281815  0.86904356    -0.12500
C1280       C  0.75006530  0.67722039  0.90139370     0.18400
C1281       C  0.75108480  0.70682463  0.90715105    -0.09500
C1282       C  0.76238530  0.73056290  0.88076322    -0.02500
H1283       H  0.76177079  0.65067688  0.86426142     0.04900
C1284       C  0.73688777  0.65091886  0.92867408     0.20400
H1285       H  0.76157781  0.75241732  0.88526424     0.10100
C1286       C  0.75069845  0.65728390  0.96237170    -0.15900
C1287       C  0.73711956  0.63450465  0.98962833     0.03100
C1288       C  0.70980411  0.60381530  0.98334331    -0.11200
C1289       C  0.69700306  0.59672685  0.94919133    -0.01200
C1290       C  0.70988342  0.61998286  0.92221355    -0.06400
H1291       H  0.77168238  0.68060374  0.96784739     0.06100
H1292       H  0.67563562  0.57362353  0.94395729     0.09500
Br1293     Br  0.73462018  0.71512676  0.94939156    -0.06100
Br1294     Br  0.78722306  0.68808734  0.79902437    -0.03000
Br1295     Br  0.75679191  0.64675832  0.03514012    -0.00200
Br1296     Br  0.68760535  0.60918048  0.87810260    -0.04500
C1297       C  0.56906219  0.52310924  0.03306567    -0.11900
C1298       C  0.54794025  0.52353476  0.05863548     0.03500
C1299       C  0.51707354  0.51619108  0.04897657    -0.12500
C1300       C  0.50643767  0.50725512  0.01449495     0.18400
C1301       C  0.52699999  0.50568310  0.98919085    -0.09500
C1302       C  0.55820379  0.51370807  0.99861016    -0.02500
H1303       H  0.50103453  0.51688408  0.06857561     0.04900
C1304       C  0.47375184  0.49965337  0.00544964     0.20400
H1305       H  0.57404274  0.51269969  0.97898401     0.10100
C1306       C  0.46992204  0.51987389  0.98200283    -0.15900
C1307       C  0.43929256  0.51239409  0.97111054     0.03100
C1308       C  0.41203073  0.48477200  0.98455992    -0.11200
C1309       C  0.41577793  0.46492407  0.00868896    -0.01200
C1310       C  0.44651158  0.47225611  0.01934208    -0.06400
H1311       H  0.49093161  0.54091736  0.97121536     0.06100
H1312       H  0.39481399  0.44322366  0.01842278     0.09500
Br1313     Br  0.51317093  0.49162306  0.94195870    -0.06100
Br1314     Br  0.55846605  0.53103074  0.10764601    -0.03000
Br1315     Br  0.43624951  0.53850052  0.93492706    -0.00200
Br1316     Br  0.45027265  0.44318235  0.05093698    -0.04500
C1317       C  0.81098773  0.39837687  0.07397919    -0.11900
C1318       C  0.82422350  0.42771902  0.09267930     0.03500
C1319       C  0.80930024  0.44641469  0.09116575    -0.12500
C1320       C  0.78111079  0.43633626  0.07137202     0.18400
C1321       C  0.76856125  0.40763150  0.05180707    -0.09500
C1322       C  0.78351829  0.38911213  0.05311769    -0.02500
H1323       H  0.81941157  0.46867053  0.10596745     0.04900
C1324       C  0.76377188  0.45464680  0.07309328     0.20400
H1325       H  0.77282943  0.36663600  0.03866227     0.10100
C1326       C  0.76087470  0.46979237  0.04292133    -0.15900
C1327       C  0.74166272  0.48421186  0.04285335     0.03100
C1328       C  0.72487905  0.48381690  0.07373459    -0.11200
C1329       C  0.72912511  0.46963258  0.10421858    -0.01200
C1330       C  0.74812558  0.45520312  0.10407603    -0.06400
H1331       H  0.77306707  0.46970518  0.01898702     0.06100
H1332       H  0.71680120  0.46875294  0.12836856     0.09500
Br1333     Br  0.72976722  0.39149560  0.02466491    -0.06100
Br1334     Br  0.86314251  0.44405193  0.11953012    -0.03000
Br1335     Br  0.73969100  0.50353660  0.99950938    -0.00200
Br1336     Br  0.75005611  0.43460845  0.14647501    -0.04500
C1337       C  0.49635164  0.24665597  0.07761419    -0.11900
C1338       C  0.49112430  0.26138132  0.10721765     0.03500
C1339       C  0.50657964  0.29511345  0.10943762    -0.12500
C1340       C  0.52704426  0.31476028  0.08255178     0.18400
C1341       C  0.53124765  0.30024467  0.05247978    -0.09500
C1342       C  0.51580809  0.26660046  0.05007825    -0.02500
H1343       H  0.50311030  0.30612125  0.13259296     0.04900
C1344       C  0.54611550  0.35020000  0.08752623     0.20400
H1345       H  0.52051816  0.25611582  0.02728822     0.10100
C1346       C  0.57318961  0.36305059  0.10953561    -0.15900
C1347       C  0.59404586  0.39642657  0.11205110     0.03100
C1348       C  0.58776808  0.41761656  0.09256183    -0.11200
C1349       C  0.56015044  0.40475978  0.07127523    -0.01200
C1350       C  0.53924487  0.37132709  0.06887446    -0.06400
H1351       H  0.57887248  0.34698972  0.12363762     0.06100
H1352       H  0.55515912  0.42075031  0.05600983     0.09500
Br1353     Br  0.55999748  0.32547132  0.01526438    -0.06100
Br1354     Br  0.46305548  0.23720644  0.14544422    -0.03000
Br1355     Br  0.63266849  0.41153232  0.13926703    -0.00200
Br1356     Br  0.50199951  0.35548578  0.03932294    -0.04500
C1357       C  0.61159686  0.55364999  0.18865516    -0.11900
C1358       C  0.62388370  0.58476834  0.20321764     0.03500
C1359       C  0.60647607  0.59025393  0.22904859    -0.12500
C1360       C  0.57658532  0.56537910  0.24103077     0.18400
C1361       C  0.56417493  0.53419192  0.22684594    -0.09500
C1362       C  0.58184831  0.52844904  0.20114884    -0.02500
H1363       H  0.61640278  0.61425570  0.23998171     0.04900
C1364       C  0.55951818  0.57337070  0.26835969     0.20400
H1365       H  0.57180721  0.50451736  0.19003381     0.10100
C1366       C  0.54579889  0.59205691  0.25899208    -0.15900
C1367       C  0.53600091  0.60641085  0.28454768     0.03100
C1368       C  0.54012026  0.60239873  0.32071162    -0.11200
C1369       C  0.55219938  0.58206786  0.32990522    -0.01200
C1370       C  0.56181032  0.56766433  0.30420120    -0.06400
H1371       H  0.54432401  0.59697682  0.23144116     0.06100
H1372       H  0.55553173  0.57843381  0.35732879     0.09500
Br1373     Br  0.52272303  0.49931574  0.24070428    -0.06100
Br1374     Br  0.66503933  0.62073750  0.19000922    -0.03000
Br1375     Br  0.52076515  0.63402640  0.26769010    -0.00200
Br1376     Br  0.58065221  0.54273508  0.31919688    -0.04500
C1377       C  0.71287969  0.77729704  0.65188115    -0.11900
C1378       C  0.71317642  0.80200537  0.63134548     0.03500
C1379       C  0.69051814  0.79407234  0.60418250    -0.12500
C1380       C  0.66726520  0.76180647  0.59711886     0.18400
C1381       C  0.66669892  0.73729842  0.61785755    -0.09500
C1382       C  0.68905740  0.74512129  0.64493032    -0.02500
H1383       H  0.69117917  0.81312570  0.58834161     0.04900
C1384       C  0.64520411  0.75339261  0.56657840     0.20400
H1385       H  0.68843276  0.72563648  0.65990848     0.10100
C1386       C  0.65653280  0.75172459  0.53319742    -0.15900
C1387       C  0.63537338  0.73826188  0.50473207     0.03100
C1388       C  0.60169646  0.72534097  0.50955897    -0.11200
C1389       C  0.59094034  0.72957523  0.54251638    -0.01200
C1390       C  0.61236176  0.74355590  0.57074770    -0.06400
H1391       H  0.68190903  0.75990678  0.52954636     0.06100
H1392       H  0.56551964  0.72064532  0.54695464     0.09500
Br1393     Br  0.63697326  0.69248326  0.60883864    -0.06100
Br1394     Br  0.74289110  0.84685484  0.63992320    -0.03000
Br1395     Br  0.65464933  0.73863527  0.46030023    -0.00200
Br1396     Br  0.59563307  0.74782463  0.61489557    -0.04500
C1397       C  0.60236981  0.74625956  0.35213560    -0.11900
C1398       C  0.60854451  0.75521988  0.31664665     0.03500
C1399       C  0.63140901  0.78702623  0.30800198    -0.12500
C1400       C  0.64848522  0.80951931  0.33455965     0.18400
C1401       C  0.64303978  0.80009710  0.36996309    -0.09500
C1402       C  0.61994425  0.76865845  0.37849584    -0.02500
H1403       H  0.63604635  0.79419664  0.28069990     0.04900
C1404       C  0.67161843  0.84296710  0.32536945     0.20400
H1405       H  0.61550131  0.76168564  0.40589254     0.10100
C1406       C  0.66441757  0.86690111  0.33448381    -0.15900
C1407       C  0.68665033  0.89927119  0.32822091     0.03100
C1408       C  0.71664512  0.90780401  0.31305079    -0.11200
C1409       C  0.72387151  0.88386296  0.30405479    -0.01200
C1410       C  0.70135966  0.85145671  0.30963406    -0.06400
H1411       H  0.64147392  0.86030226  0.34673388     0.06100
H1412       H  0.74662196  0.89033773  0.29145473     0.09500
Br1413     Br  0.66705525  0.82899598  0.40752931    -0.06100
Br1414     Br  0.58827345  0.72447293  0.27961194    -0.03000
Br1415     Br  0.67540950  0.93086894  0.34169921    -0.00200
Br1416     Br  0.71220036  0.81983013  0.29514974    -0.04500
C1417       C  0.51278574  0.58139487  0.48902565    -0.11900
C1418       C  0.53510101  0.57434789  0.50452286     0.03500
C1419       C  0.52484856  0.54292593  0.51540663    -0.12500
C1420       C  0.49289118  0.51842594  0.50999316     0.18400
C1421       C  0.47056598  0.52548695  0.49478218    -0.09500
C1422       C  0.48053401  0.55703335  0.48490554    -0.02500
H1423       H  0.54196341  0.53736713  0.52724983     0.04900
C1424       C  0.48343713  0.48548469  0.51987880     0.20400
H1425       H  0.46347682  0.56223339  0.47223093     0.10100
C1426       C  0.47568832  0.47615835  0.55491450    -0.15900
C1427       C  0.46719969  0.44512462  0.56550879     0.03100
C1428       C  0.46572861  0.42276021  0.54035780    -0.11200
C1429       C  0.47398535  0.43249678  0.50528781    -0.01200
C1430       C  0.48312067  0.46377333  0.49500536    -0.06400
H1431       H  0.47685320  0.49333576  0.57418074     0.06100
H1432       H  0.47351344  0.41579552  0.48583091     0.09500
Br1433     Br  0.42686367  0.49263954  0.48530420    -0.06100
Br1434     Br  0.57957373  0.60657174  0.51125449    -0.03000
Br1435     Br  0.46087212  0.43614115  0.61499996    -0.00200
Br1436     Br  0.49606807  0.47624036  0.44718031    -0.04500
C1437       C  0.47649220  0.73009968  0.41357066    -0.11900
C1438       C  0.44400144  0.71734510  0.40359355     0.03500
C1439       C  0.43097738  0.73751973  0.40052504    -0.12500
C1440       C  0.44978696  0.77074923  0.40698395     0.18400
C1441       C  0.48224666  0.78354221  0.41745306    -0.09500
C1442       C  0.49530653  0.76321729  0.42078419    -0.02500
H1443       H  0.40579312  0.72708631  0.39360456     0.04900
C1444       C  0.43409278  0.79077062  0.40527441     0.20400
H1445       H  0.52029819  0.77337300  0.42835675     0.10100
C1446       C  0.43194276  0.80572833  0.43590548    -0.15900
C1447       C  0.41453916  0.82192265  0.43675177     0.03100
C1448       C  0.39782101  0.82284124  0.40646306    -0.11200
C1449       C  0.40113396  0.80890126  0.37531495    -0.01200
C1450       C  0.41899613  0.79305868  0.37451783    -0.06400
H1451       H  0.44335858  0.80416591  0.45977015     0.06100
H1452       H  0.38885846  0.80929040  0.35163526     0.09500
Br1453     Br  0.50998153  0.82873623  0.42630230    -0.06100
Br1454     Br  0.41565719  0.67204975  0.39579192    -0.03000
Br1455     Br  0.41533282  0.84235210  0.48043994    -0.00200
Br1456     Br  0.42209081  0.77494353  0.33075569    -0.04500
C1457       C  0.41055284  0.59487092  0.41554466    -0.11900
C1458       C  0.39246671  0.57404311  0.38763420     0.03500
C1459       C  0.35858932  0.55631176  0.38956013    -0.12500
C1460       C  0.34206074  0.55851463  0.41892847     0.18400
C1461       C  0.35998354  0.57767534  0.44747024    -0.09500
C1462       C  0.39365049  0.59536170  0.44568985    -0.02500
H1463       H  0.34495918  0.54126653  0.36760130     0.04900
C1464       C  0.30631873  0.54295557  0.41816577     0.20400
H1465       H  0.40650115  0.61077170  0.46770395     0.10100
C1466       C  0.28695530  0.51579193  0.43910050    -0.15900
C1467       C  0.25313443  0.50140014  0.43932777     0.03100
C1468       C  0.23807261  0.51406231  0.41788713    -0.11200
C1469       C  0.25779477  0.54124391  0.39697827    -0.01200
C1470       C  0.29139643  0.55576689  0.39723374    -0.06400
H1471       H  0.29824621  0.50583356  0.45545531     0.06100
H1472       H  0.24708755  0.55195675  0.38089501     0.09500
Br1473     Br  0.33965328  0.58261758  0.48850643    -0.06100
Br1474     Br  0.41189760  0.56824680  0.34624069    -0.03000
Br1475     Br  0.22918196  0.46412891  0.46858997    -0.00200
Br1476     Br  0.31602953  0.59427341  0.36994697    -0.04500
loop_ 
_geom_bond_atom_site_label_1 
_geom_bond_atom_site_label_2 
_geom_bond_distance 
_geom_bond_site_symmetry_2 
_ccdc_geom_bond_type 
Fe1          O17   2.037       .  S
Fe1           O7   2.058       .  S
Fe1          O14   2.063       .  S
Fe1           O6   2.038       .  S
Fe1          O12   1.975       .  S
Fe2           O5   2.072       .  S
Fe2           O9   2.074       .  S
Fe2          O13   2.073       .  S
Fe2          O18   2.077       .  S
Fe2          O12   1.974       .  S
Fe3          O21   2.081       .  S
Fe3           O8   2.072       .  S
Fe3          O15   2.082       .  S
Fe3           O4   2.067       .  S
Fe3          O12   1.970       .  S
O4           C11   1.273       .  A
O5           C19   1.268       .  A
O6           C11   1.268       .  A
O7           C10   1.262       .  A
O8           C20   1.273       .  A
O9           C22   1.277       .  A
C10          O15   1.269       .  A
C10        C1388   1.498       .  S
C11        C1417   1.455       .  S
O13          C16   1.265       .  A
O14          C16   1.264       .  A
C16        C1368   1.496       .  S
O17          C22   1.270       .  A
O18          C20   1.274       .  A
C19          O21   1.270       .  A
C19        C1437   1.483       .  S
C20        C1457   1.498       .  S
C22        C1397   1.454       .  S
Fe23         O39   2.035       .  S
Fe23         O29   2.059       .  S
Fe23         O36   2.058       .  S
Fe23         O28   2.042       .  S
Fe23         O34   1.971       .  S
Fe24         O27   2.070       .  S
Fe24         O31   2.067       .  S
Fe24         O35   2.090       .  S
Fe24         O40   2.066       .  S
Fe24         O34   1.973       .  S
Fe25         O43   2.084       .  S
Fe25         O30   2.073       .  S
Fe25         O37   2.093       .  S
Fe25         O26   2.068       .  S
Fe25         O34   1.977       .  S
O26          C33   1.276       .  A
O27          C41   1.273       .  A
O28          C33   1.271       .  A
O29          C32   1.262       .  A
O30          C42   1.269       .  A
O31          C44   1.273       .  A
C32          O37   1.269       .  A
C32        C1288   1.495   1_554  S
C33        C1297   1.461       .  S
O35          C38   1.268       .  A
O36          C38   1.262       .  A
C38        C1357   1.490       .  S
O39          C44   1.270       .  A
O40          C42   1.269       .  A
C41          O43   1.274       .  A
C41        C1328   1.501       .  S
C42        C1348   1.478       .  S
C44        C1268   1.461       .  S
Fe45         O61   2.048       .  S
Fe45         O51   2.058       .  S
Fe45         O58   2.062       .  S
Fe45         O50   2.039       .  S
Fe45         O56   1.971       .  S
Fe46         O49   2.083       .  S
Fe46         O53   2.050       .  S
Fe46         O57   2.095       .  S
Fe46         O62   2.071       .  S
Fe46         O56   1.974       .  S
Fe47         O65   2.065       .  S
Fe47         O52   2.066       .  S
Fe47         O59   2.082       .  S
Fe47         O48   2.059       .  S
Fe47         O56   1.974       .  S
O48          C55   1.272       .  A
O49          C63   1.271       .  A
O50          C55   1.269       .  A
O51          C54   1.264       .  A
O52          C64   1.272       .  A
O53          C66   1.273       .  A
C54          O59   1.267       .  A
C54        C1377   1.494       .  S
C55        C1208   1.461       .  S
O57          C60   1.269       .  A
O58          C60   1.262       .  A
C60        C1277   1.493       .  S
O61          C66   1.272       .  A
O62          C64   1.272       .  A
C63          O65   1.268       .  A
C63        C1217   1.485       .  S
C64        C1237   1.488       .  S
C66        C1177   1.459       .  S
Fe67         O83   2.046       .  S
Fe67         O73   2.048       .  S
Fe67         O80   2.055       .  S
Fe67         O72   2.049       .  S
Fe67         O78   1.969       .  S
Fe68         O71   2.077       .  S
Fe68         O75   2.092       .  S
Fe68         O79   2.057       .  S
Fe68         O84   2.083       .  S
Fe68         O78   1.968       .  S
Fe69         O87   2.083       .  S
Fe69         O74   2.082       .  S
Fe69         O81   2.060       .  S
Fe69         O70   2.104       .  S
Fe69         O78   1.966       .  S
O70          C77   1.274       .  A
O71          C85   1.274       .  A
O72          C77   1.264       .  A
O73          C76   1.267       .  A
O74          C86   1.274       .  A
O75          C88   1.271       .  A
C76          O81   1.270       .  A
C76        C1308   1.455       .  S
C77        C1097   1.505   1_556  S
O79          C82   1.274       .  A
O80          C82   1.269       .  A
C82        C1117   1.472       .  S
O83          C88   1.261       .  A
O84          C86   1.271       .  A
C85          O87   1.275       .  A
C85        C1148   1.492       .  S
C86        C1157   1.495       .  S
C88        C1077   1.489       .  S
Fe89        O105   2.061       .  S
Fe89         O95   2.035       .  S
Fe89        O102   2.031       .  S
Fe89         O94   2.055       .  S
Fe89        O100   1.958       .  S
Fe90         O93   2.078       .  S
Fe90         O97   2.082       .  S
Fe90        O101   2.089       .  S
Fe90        O106   2.061       .  S
Fe90        O100   1.960       .  S
Fe91        O109   2.067       .  S
Fe91         O96   2.075       .  S
Fe91        O103   2.081       .  S
Fe91         O92   2.087       .  S
Fe91        O100   1.960       .  S
O92          C99   1.266       .  A
O93         C107   1.271       .  A
O94          C99   1.261       .  A
O95          C98   1.272       .  A
O96         C108   1.273       .  A
O97         C110   1.265       .  A
C98         O103   1.280       .  A
C98        C1428   1.466       .  S
C99        C1017   1.486       .  S
O101        C104   1.279       .  A
O102        C104   1.271       .  A
C104        C997   1.464       .  S
O105        C110   1.262       .  A
O106        C108   1.270       .  A
C107        O109   1.271       .  A
C107       C1037   1.498       .  S
C108       C1068   1.482       .  S
C110       C1088   1.484       .  S
Fe111       O127   2.053       .  S
Fe111       O117   2.046       .  S
Fe111       O124   2.044       .  S
Fe111       O116   2.051       .  S
Fe111       O122   1.974       .  S
Fe112       O115   2.075       .  S
Fe112       O119   2.092       .  S
Fe112       O123   2.063       .  S
Fe112       O128   2.077       .  S
Fe112       O122   1.973       .  S
Fe113       O131   2.072       .  S
Fe113       O118   2.084       .  S
Fe113       O125   2.076       .  S
Fe113       O114   2.089       .  S
Fe113       O122   1.979       .  S
O114        C121   1.268       .  A
O115        C129   1.271       .  A
O116        C121   1.261       .  A
O117        C120   1.271       .  A
O118        C130   1.275       .  A
O119        C132   1.268       .  A
C120        O125   1.276       .  A
C120        C937   1.466       .  S
C121       C1028   1.492       .  S
O123        C126   1.274       .  A
O124        C126   1.269       .  A
C126        C928   1.460       .  S
O127        C132   1.264       .  A
O128        C130   1.273       .  A
C129        O131   1.270       .  A
C129        C977   1.494       .  S
C130        C957   1.494       .  S
C132       C1108   1.507       .  S
Fe133       O149   2.019       .  S
Fe133       O139   2.065       .  S
Fe133       O146   2.061       .  S
Fe133       O138   2.029       .  S
Fe133       O144   1.962       .  S
Fe134       O137   2.062       .  S
Fe134       O141   2.086       .  S
Fe134       O145   2.078       .  S
Fe134       O150   2.077       .  S
Fe134       O144   1.967       .  S
Fe135       O153   2.094       .  S
Fe135       O140   2.068       .  S
Fe135       O147   2.087       .  S
Fe135       O136   2.091       .  S
Fe135       O144   1.962       .  S
O136        C143   1.280       .  A
O137        C151   1.270       .  A
O138        C143   1.272       .  A
O139        C142   1.262       .  A
O140        C152   1.269       .  A
O141        C154   1.277       .  A
C142        O147   1.268       .  A
C142        C877   1.497       .  S
C143        C917   1.467       .  S
O145        C148   1.265       .  A
O146        C148   1.263       .  A
C148        C857   1.481   1_554  S
O149        C154   1.268       .  A
O150        C152   1.273       .  A
C151        O153   1.276       .  A
C151        C897   1.498       .  S
C152       C1337   1.492       .  S
C154        C848   1.448       .  S
Fe155       O171   2.055   1_565  S
Fe155       O161   2.061   1_565  S
Fe155       O168   2.073       .  S
Fe155       O160   2.055       .  S
Fe155       O166   1.966       .  S
Fe156       O159   2.081   1_565  S
Fe156       O163   2.058   1_565  S
Fe156       O167   2.087       .  S
Fe156       O172   2.073       .  S
Fe156       O166   1.964       .  S
Fe157       O175   2.070   1_565  S
Fe157       O162   2.067       .  S
Fe157       O169   2.075   1_565  S
Fe157       O158   2.060       .  S
Fe157       O166   1.967       .  S
O158        C165   1.272       .  A
O159        C173   1.271       .  A
O160        C165   1.273       .  A
O161        C164   1.266       .  A
O162        C174   1.272       .  A
O163        C176   1.275       .  A
C164        O169   1.265       .  A
C164        C868   1.495       .  S
C165        C797   1.462       .  S
O167        C170   1.268       .  A
O168        C170   1.266       .  A
C170        C777   1.510       .  S
O171        C176   1.272       .  A
O172        C174   1.274       .  A
C173        O175   1.269       .  A
C173        C817   1.488       .  S
C174       C1248   1.481       .  S
C176       C1008   1.465       .  S
Fe177       O193   2.029       .  S
Fe177       O183   2.065       .  S
Fe177       O190   2.062       .  S
Fe177       O182   2.024       .  S
Fe177       O188   1.958       .  S
Fe178       O181   2.072       .  S
Fe178       O185   2.087       .  S
Fe178       O189   2.099       .  S
Fe178       O194   2.080       .  S
Fe178       O188   1.957       .  S
Fe179       O197   2.084       .  S
Fe179       O184   2.065       .  S
Fe179       O191   2.089       .  S
Fe179       O180   2.085       .  S
Fe179       O188   1.961       .  S
O180        C187   1.279       .  A
O181        C195   1.270       .  A
O182        C187   1.271       .  A
O183        C186   1.263       .  A
O184        C196   1.270       .  A
O185        C198   1.282       .  A
C186        O191   1.266       .  A
C186        C888   1.500       .  S
C187        C717   1.447       .  S
O189        C192   1.267       .  A
O190        C192   1.261       .  A
C192        C788   1.499       .  S
O193        C198   1.272       .  A
O194        C196   1.274       .  A
C195        O197   1.274       .  A
C195       C1448   1.499       .  S
C196        C757   1.484       .  S
C198        C737   1.462       .  S
Fe199       O215   2.058       .  S
Fe199       O205   2.019       .  S
Fe199       O212   2.021       .  S
Fe199       O204   2.059       .  S
Fe199       O210   1.952       .  S
Fe200       O203   2.087       .  S
Fe200       O207   2.102       .  S
Fe200       O211   2.093       .  S
Fe200       O216   2.077       .  S
Fe200       O210   1.952       .  S
Fe201       O219   2.073       .  S
Fe201       O206   2.081       .  S
Fe201       O213   2.086       .  S
Fe201       O202   2.095       .  S
Fe201       O210   1.955       .  S
O202        C209   1.268       .  A
O203        C217   1.274       .  A
O204        C209   1.262       .  A
O205        C208   1.268       .  A
O206        C218   1.274       .  A
O207        C220   1.270       .  A
C208        O213   1.279       .  A
C208       C1188   1.454       .  S
C209        C677   1.492       .  S
O211        C214   1.278       .  A
O212        C214   1.270       .  A
C214        C837   1.471       .  S
O215        C220   1.263       .  A
O216        C218   1.274       .  A
C217        O219   1.272       .  A
C217       C1137   1.497       .  S
C218        C697   1.491       .  S
C220        C657   1.506   1_556  S
Fe221       O237   2.046   1_565  S
Fe221       O227   2.040   1_565  S
Fe221       O234   2.040       .  S
Fe221       O226   2.052       .  S
Fe221       O232   1.976       .  S
Fe222       O225   2.070   1_565  S
Fe222       O229   2.100   1_565  S
Fe222       O233   2.057       .  S
Fe222       O238   2.078       .  S
Fe222       O232   1.979       .  S
Fe223       O241   2.088       .  S
Fe223       O228   2.084   1_545  S
Fe223       O235   2.072       .  S
Fe223       O224   2.105   1_545  S
Fe223       O232   1.975   1_545  S
O224        C231   1.273       .  A
O225        C239   1.271       .  A
O226        C231   1.264       .  A
O227        C230   1.268       .  A
O228        C240   1.275       .  A
O229        C242   1.271       .  A
C230        O235   1.274       .  A
C230        C608   1.466       .  S
C231        C668   1.508       .  S
O233        C236   1.270       .  A
O234        C236   1.267       .  A
C236       C1408   1.454       .  S
O237        C242   1.263       .  A
O238        C240   1.273       .  A
C239        O241   1.274       .  A
C239        C988   1.490       .  S
C240        C637   1.493       .  S
C242        C617   1.506       .  S
Fe243       O259   2.054       .  S
Fe243       O249   2.059       .  S
Fe243       O256   2.062       .  S
Fe243       O248   2.047       .  S
Fe243       O254   1.967       .  S
Fe244       O247   2.071       .  S
Fe244       O251   2.091       .  S
Fe244       O255   2.049       .  S
Fe244       O260   2.066       .  S
Fe244       O254   1.967       .  S
Fe245       O263   2.087       .  S
Fe245       O250   2.074       .  S
Fe245       O257   2.052       .  S
Fe245       O246   2.104       .  S
Fe245       O254   1.967       .  S
O246        C253   1.274       .  A
O247        C261   1.275       .  A
O248        C253   1.262       .  A
O249        C252   1.272       .  A
O250        C262   1.272       .  A
O251        C264   1.269       .  A
C252        O257   1.270       .  A
C252        C568   1.460       .  S
C253        C688   1.491       .  S
O255        C258   1.271       .  A
O256        C258   1.272       .  A
C258        C748   1.455       .  S
O259        C264   1.264       .  A
O260        C262   1.266       .  A
C261        O263   1.275       .  A
C261        C588   1.478       .  S
C262       C1057   1.483       .  S
C264        C628   1.495       .  S
Fe265       O281   2.050       .  S
Fe265       O271   2.066       .  S
Fe265       O278   2.060       .  S
Fe265       O270   2.057       .  S
Fe265       O276   1.964       .  S
Fe266       O269   2.080       .  S
Fe266       O273   2.058       .  S
Fe266       O277   2.089       .  S
Fe266       O282   2.073       .  S
Fe266       O276   1.970       .  S
Fe267       O285   2.072       .  S
Fe267       O272   2.083       .  S
Fe267       O279   2.101       .  S
Fe267       O268   2.050       .  S
Fe267       O276   1.969       .  S
O268        C275   1.273       .  A
O269        C283   1.273       .  A
O270        C275   1.273       .  A
O271        C274   1.264       .  A
O272        C284   1.272       .  A
O273        C286   1.272       .  A
C274        O279   1.271       .  A
C274        C537   1.503       .  S
C275        C948   1.458       .  S
O277        C280   1.269       .  A
O278        C280   1.264       .  A
C280        C517   1.497       .  S
O281        C286   1.272       .  A
O282        C284   1.270       .  A
C283        O285   1.274       .  A
C283        C768   1.487       .  S
C284       C1468   1.494       .  S
C286        C497   1.464       .  S
Fe287       O303   2.051       .  S
Fe287       O293   2.068       .  S
Fe287       O300   2.060       .  S
Fe287       O292   2.053       .  S
Fe287       O298   1.970       .  S
Fe288       O291   2.078       .  S
Fe288       O295   2.065       .  S
Fe288       O299   2.088       .  S
Fe288       O304   2.083       .  S
Fe288       O298   1.973       .  S
Fe289       O307   2.074       .  S
Fe289       O294   2.080       .  S
Fe289       O301   2.087       .  S
Fe289       O290   2.063       .  S
Fe289       O298   1.971       .  S
O290        C297   1.273       .  A
O291        C305   1.271       .  A
O292        C297   1.275       .  A
O293        C296   1.263       .  A
O294        C306   1.273       .  A
O295        C308   1.276       .  A
C296        O301   1.267       .  A
C296        C548   1.488       .  S
C297        C597   1.472       .  S
O299        C302   1.268       .  A
O300        C302   1.262       .  A
C302        C457   1.501   1_554  S
O303        C308   1.273       .  A
O304        C306   1.274       .  A
C305        O307   1.271       .  A
C305       C1317   1.488       .  S
C306        C908   1.497       .  S
C308        C488   1.459       .  S
Fe309       O325   2.036   1_655  S
Fe309       O315   2.053   1_655  S
Fe309       O322   2.054       .  S
Fe309       O314   2.036       .  S
Fe309       O320   1.968       .  S
Fe310       O313   2.065   1_655  S
Fe310       O317   2.073   1_655  S
Fe310       O321   2.093       .  S
Fe310       O326   2.073       .  S
Fe310       O320   1.971       .  S
Fe311       O329   2.089   1_655  S
Fe311       O316   2.069       .  S
Fe311       O323   2.089   1_655  S
Fe311       O312   2.086       .  S
Fe311       O320   1.975       .  S
O312        C319   1.278       .  A
O313        C327   1.273       .  A
O314        C319   1.271       .  A
O315        C318   1.263       .  A
O316        C328   1.268       .  A
O317        C330   1.273       .  A
C318        O323   1.266       .  A
C318        C528   1.506       .  S
C319        C557   1.474       .  S
O321        C324   1.269       .  A
O322        C324   1.263       .  A
C324        C468   1.495       .  S
O325        C330   1.268       .  A
O326        C328   1.270       .  A
C327        O329   1.275       .  A
C327        C828   1.502       .  S
C328       C1228   1.486       .  S
C330       C1128   1.454       .  S
Fe331       O347   2.063       .  S
Fe331       O337   2.018       .  S
Fe331       O344   2.019       .  S
Fe331       O336   2.054       .  S
Fe331       O342   1.961       .  S
Fe332       O335   2.086       .  S
Fe332       O339   2.092       .  S
Fe332       O343   2.096       .  S
Fe332       O348   2.070       .  S
Fe332       O342   1.959       .  S
Fe333       O351   2.066       .  S
Fe333       O338   2.093       .  S
Fe333       O345   2.091       .  S
Fe333       O334   2.097       .  S
Fe333       O342   1.964       .  S
O334        C341   1.269       .  A
O335        C349   1.273       .  A
O336        C341   1.260       .  A
O337        C340   1.271       .  A
O338        C350   1.276       .  A
O339        C352   1.266       .  A
C340        O345   1.280       .  A
C340        C808   1.472       .  S
C341        C448   1.494       .  S
O343        C346   1.281       .  A
O344        C346   1.269       .  A
C346        C477   1.464       .  S
O347        C352   1.261       .  A
O348        C350   1.271       .  A
C349        O351   1.270       .  A
C349        C708   1.500       .  S
C350       C1168   1.489       .  S
C352        C417   1.486   1_556  S
Fe353       O369   2.061   1_655  S
Fe353       O359   2.028   1_655  S
Fe353       O366   2.028       .  S
Fe353       O358   2.064       .  S
Fe353       O364   1.972       .  S
Fe354       O357   2.087   1_655  S
Fe354       O361   2.101   1_655  S
Fe354       O365   2.064       .  S
Fe354       O370   2.079       .  S
Fe354       O364   1.976       .  S
Fe355       O373   2.076   1_655  S
Fe355       O360   2.068       .  S
Fe355       O367   2.062   1_655  S
Fe355       O356   2.092       .  S
Fe355       O364   1.973       .  S
O356        C363   1.269       .  A
O357        C371   1.276       .  A
O358        C363   1.266       .  A
O359        C362   1.267       .  A
O360        C372   1.270       .  A
O361        C374   1.273       .  A
C362        O367   1.269       .  A
C362        C728   1.476       .  S
C363        C408   1.507       .  S
O365        C368   1.272       .  A
O366        C368   1.266       .  A
C368       C1257   1.461       .  S
O369        C374   1.264       .  A
O370        C372   1.272       .  A
C371        O373   1.272       .  A
C371        C968   1.492       .  S
C372        C648   1.487       .  S
C374        C428   1.497       .  S
Fe375       O391   2.062       .  S
Fe375       O381   2.036       .  S
Fe375       O388   2.035       .  S
Fe375       O380   2.052       .  S
Fe375       O386   1.965       .  S
Fe376       O379   2.074       .  S
Fe376       O383   2.088       .  S
Fe376       O387   2.080       .  S
Fe376       O392   2.068       .  S
Fe376       O386   1.973       .  S
Fe377       O395   2.077       .  S
Fe377       O382   2.080       .  S
Fe377       O389   2.075       .  S
Fe377       O378   2.094       .  S
Fe377       O386   1.976       .  S
O378        C385   1.269       .  A
O379        C393   1.270       .  A
O380        C385   1.260       .  A
O381        C384   1.271       .  A
O382        C394   1.275       .  A
O383        C396   1.267       .  A
C384        O389   1.276       .  A
C384       C1197   1.452       .  S
C385        C437   1.494       .  S
O387        C390   1.275       .  A
O388        C390   1.269       .  A
C390        C508   1.460       .  S
O391        C396   1.264       .  A
O392        C394   1.272       .  A
C393        O395   1.271       .  A
C393       C1048   1.493       .  S
C394        C577   1.486       .  S
C396        C397   1.501       .  S
C397        C398   1.419       .  A
C397        C402   1.409       .  A
C398        C399   1.411       .  A
C398       Br414   1.919       .  S
C399        C400   1.406       .  A
C399        H403   1.085       .  S
C400        C404   1.494       .  S
C400        C401   1.407       .  A
C401        C402   1.399       .  A
C401       Br413   1.921       .  S
C402        H405   1.085       .  S
C404        C406   1.404       .  A
C404        C410   1.406       .  A
C406        C407   1.407       .  A
C406        H411   1.084       .  S
C407        C408   1.421       .  A
C407       Br415   1.920       .  S
C408        C409   1.413       .  A
C409        C410   1.404       .  A
C409        H412   1.084       .  S
C410       Br416   1.919       .  S
C417        C418   1.410       .  A
C417        C422   1.406       .  A
C418        C419   1.404       .  A
C418       Br434   1.920       .  S
C419        C420   1.404       .  A
C419        H423   1.082       .  S
C420        C424   1.495       .  S
C420        C421   1.412       .  A
C421        C422   1.410       .  A
C421       Br433   1.916       .  S
C422        H425   1.082       .  S
C424        C426   1.404       .  A
C424        C430   1.410       .  A
C426        C427   1.408       .  A
C426        H431   1.084       .  S
C427        C428   1.417       .  A
C427       Br435   1.920       .  S
C428        C429   1.408       .  A
C429        C430   1.407       .  A
C429        H432   1.084       .  S
C430       Br436   1.918       .  S
C437        C438   1.415       .  A
C437        C442   1.406       .  A
C438        C439   1.403       .  A
C438       Br454   1.919       .  S
C439        C440   1.403       .  A
C439        H443   1.083   1_655  S
C440        C444   1.498   1_655  S
C440        C441   1.414       .  A
C441        C442   1.409       .  A
C441       Br453   1.919       .  S
C442        H445   1.083       .  S
C444        C446   1.403       .  A
C444        C450   1.414       .  A
C446        C447   1.402       .  A
C446        H451   1.084   1_455  S
C447        C448   1.417       .  A
C447       Br455   1.924       .  S
C448        C449   1.406       .  A
C449        C450   1.410       .  A
C449        H452   1.083       .  S
C450       Br456   1.917       .  S
C457        C458   1.420       .  A
C457        C462   1.410       .  A
C458        C459   1.404       .  A
C458       Br474   1.921   1_556  S
C459        C460   1.401       .  A
C459        H463   1.083       .  S
C460        C464   1.493       .  S
C460        C461   1.411       .  A
C461        C462   1.407       .  A
C461       Br473   1.920       .  S
C462        H465   1.083       .  S
C464        C466   1.407       .  A
C464        C470   1.408       .  A
C466        C467   1.410       .  A
C466        H471   1.083       .  S
C467        C468   1.415       .  A
C467       Br475   1.918       .  S
C468        C469   1.408       .  A
C469        C470   1.398       .  A
C469        H472   1.083       .  S
C470       Br476   1.920       .  S
C477        C478   1.415       .  A
C477        C482   1.402   1_556  A
C478        C479   1.389       .  A
C478       Br494   1.923       .  S
C479        C480   1.394       .  A
C479        H483   1.084   1_455  S
C480        C484   1.458   1_455  S
C480        C481   1.405   1_556  A
C481        C482   1.396       .  A
C481       Br493   1.918       .  S
C482        H485   1.084       .  S
C484        C486   1.399       .  A
C484        C490   1.403   1_556  A
C486        C487   1.394   1_556  A
C486        H491   1.084   1_655  S
C487        C488   1.409       .  A
C487       Br495   1.920   1_554  S
C488        C489   1.402       .  A
C489        C490   1.390       .  A
C489        H492   1.084       .  S
C490       Br496   1.919       .  S
C497        C498   1.412       .  A
C497        C502   1.405       .  A
C498        C499   1.392       .  A
C498       Br514   1.923       .  S
C499        C500   1.398   1_455  A
C499        H503   1.084       .  S
C500        C504   1.460       .  S
C500        C501   1.403       .  A
C501        C502   1.392   1_655  A
C501       Br513   1.918       .  S
C502        H505   1.084       .  S
C504        C506   1.402       .  A
C504        C510   1.401       .  A
C506        C507   1.396       .  A
C506        H511   1.085       .  S
C507        C508   1.406       .  A
C507       Br515   1.918       .  S
C508        C509   1.403       .  A
C509        C510   1.390       .  A
C509        H512   1.082       .  S
C510       Br516   1.920       .  S
C517        C518   1.419       .  A
C517        C522   1.409       .  A
C518        C519   1.401       .  A
C518       Br534   1.923       .  S
C519        C520   1.400       .  A
C519        H523   1.085       .  S
C520        C524   1.493       .  S
C520        C521   1.412       .  A
C521        C522   1.410       .  A
C521       Br533   1.917       .  S
C522        H525   1.084       .  S
C524        C526   1.405       .  A
C524        C530   1.406       .  A
C526        C527   1.410       .  A
C526        H531   1.086       .  S
C527        C528   1.421       .  A
C527       Br535   1.920       .  S
C528        C529   1.412       .  A
C529        C530   1.399       .  A
C529        H532   1.084       .  S
C530       Br536   1.919       .  S
C537        C538   1.417       .  A
C537        C542   1.410       .  A
C538        C539   1.410       .  A
C538       Br554   1.919       .  S
C539        C540   1.406       .  A
C539        H543   1.082       .  S
C540        C544   1.501   1_455  S
C540        C541   1.409   1_455  A
C541        C542   1.408   1_655  A
C541       Br553   1.918       .  S
C542        H545   1.082       .  S
C544        C546   1.406       .  A
C544        C550   1.413       .  A
C546        C547   1.405       .  A
C546        H551   1.083       .  S
C547        C548   1.410       .  A
C547       Br555   1.920       .  S
C548        C549   1.405       .  A
C549        C550   1.411       .  A
C549        H552   1.083       .  S
C550       Br556   1.915   1_655  S
C557        C558   1.411       .  A
C557        C562   1.410       .  A
C558        C559   1.397       .  A
C558       Br574   1.919       .  S
C559        C560   1.401       .  A
C559        H563   1.083       .  S
C560        C564   1.462       .  S
C560        C561   1.400       .  A
C561        C562   1.391       .  A
C561       Br573   1.920       .  S
C562        H565   1.084       .  S
C564        C566   1.400       .  A
C564        C570   1.405       .  A
C566        C567   1.395       .  A
C566        H571   1.085       .  S
C567        C568   1.408       .  A
C567       Br575   1.920       .  S
C568        C569   1.401       .  A
C569        C570   1.392       .  A
C569        H572   1.085       .  S
C570       Br576   1.919       .  S
C577        C578   1.414       .  A
C577        C582   1.408       .  A
C578        C579   1.402       .  A
C578       Br594   1.920       .  S
C579        C580   1.403       .  A
C579        H583   1.085       .  S
C580        C584   1.484       .  S
C580        C581   1.406       .  A
C581        C582   1.402       .  A
C581       Br593   1.918       .  S
C582        H585   1.084       .  S
C584        C586   1.404       .  A
C584        C590   1.407       .  A
C586        C587   1.403       .  A
C586        H591   1.085       .  S
C587        C588   1.411       .  A
C587       Br595   1.920       .  S
C588        C589   1.404       .  A
C589        C590   1.402       .  A
C589        H592   1.085       .  S
C590       Br596   1.916       .  S
C597        C598   1.416       .  A
C597        C602   1.405       .  A
C598        C599   1.395       .  A
C598       Br614   1.924       .  S
C599        C600   1.399       .  A
C599        H603   1.084       .  S
C600        C604   1.466       .  S
C600        C601   1.404       .  A
C601        C602   1.391       .  A
C601       Br613   1.921       .  S
C602        H605   1.083       .  S
C604        C606   1.403       .  A
C604        C610   1.404       .  A
C606        C607   1.396       .  A
C606        H611   1.084       .  S
C607        C608   1.408       .  A
C607       Br615   1.919       .  S
C608        C609   1.406       .  A
C609        C610   1.391       .  A
C609        H612   1.084       .  S
C610       Br616   1.921       .  S
C617        C618   1.420       .  A
C617        C622   1.414       .  A
C618        C619   1.409       .  A
C618       Br634   1.919       .  S
C619        C620   1.406       .  A
C619        H623   1.085       .  S
C620        C624   1.491       .  S
C620        C621   1.405       .  A
C621        C622   1.399       .  A
C621       Br633   1.919       .  S
C622        H625   1.085       .  S
C624        C626   1.407       .  A
C624        C630   1.407       .  A
C626        C627   1.409       .  A
C626        H631   1.084       .  S
C627        C628   1.415       .  A
C627       Br635   1.919       .  S
C628        C629   1.409       .  A
C629        C630   1.400       .  A
C629        H632   1.084       .  S
C630       Br636   1.920       .  S
C637        C638   1.414       .  A
C637        C642   1.408       .  A
C638        C639   1.405       .  A
C638       Br654   1.920       .  S
C639        C640   1.406       .  A
C639        H643   1.083       .  S
C640        C644   1.495       .  S
C640        C641   1.410       .  A
C641        C642   1.403       .  A
C641       Br653   1.919       .  S
C642        H645   1.083       .  S
C644        C646   1.407       .  A
C644        C650   1.411       .  A
C646        C647   1.404       .  A
C646        H651   1.083       .  S
C647        C648   1.414       .  A
C647       Br655   1.922       .  S
C648        C649   1.406       .  A
C649        C650   1.402       .  A
C649        H652   1.084       .  S
C650       Br656   1.918       .  S
C657        C658   1.417       .  A
C657        C662   1.411       .  A
C658        C659   1.414       .  A
C658       Br674   1.919       .  S
C659        C660   1.411       .  A
C659        H663   1.083       .  S
C660        C664   1.501       .  S
C660        C661   1.408       .  A
C661        C662   1.398       .  A
C661       Br673   1.921       .  S
C662        H665   1.083       .  S
C664        C666   1.407       .  A
C664        C670   1.409       .  A
C666        C667   1.409       .  A
C666        H671   1.085       .  S
C667        C668   1.419       .  A
C667       Br675   1.920       .  S
C668        C669   1.413       .  A
C669        C670   1.404       .  A
C669        H672   1.085       .  S
C670       Br676   1.919       .  S
C677        C678   1.416       .  A
C677        C682   1.407       .  A
C678        C679   1.401       .  A
C678       Br694   1.923       .  S
C679        C680   1.402       .  A
C679        H683   1.084       .  S
C680        C684   1.494   1_565  S
C680        C681   1.411       .  A
C681        C682   1.410       .  A
C681       Br693   1.917       .  S
C682        H685   1.083       .  S
C684        C686   1.404       .  A
C684        C690   1.411       .  A
C686        C687   1.405       .  A
C686        H691   1.084   1_545  S
C687        C688   1.416       .  A
C687       Br695   1.921       .  S
C688        C689   1.406       .  A
C689        C690   1.406       .  A
C689        H692   1.084       .  S
C690       Br696   1.918       .  S
C697        C698   1.416       .  A
C697        C702   1.407       .  A
C698        C699   1.403       .  A
C698       Br714   1.922       .  S
C699        C700   1.405       .  A
C699        H703   1.083       .  S
C700        C704   1.492       .  S
C700        C701   1.409       .  A
C701        C702   1.403       .  A
C701       Br713   1.918       .  S
C702        H705   1.081       .  S
C704        C706   1.404       .  A
C704        C710   1.407       .  A
C706        C707   1.405       .  A
C706        H711   1.084       .  S
C707        C708   1.419       .  A
C707       Br715   1.921       .  S
C708        C709   1.412       .  A
C709        C710   1.401       .  A
C709        H712   1.083       .  S
C710       Br716   1.920       .  S
C717        C718   1.408       .  A
C717        C722   1.397       .  A
C718        C719   1.388       .  A
C718       Br734   1.922       .  S
C719        C720   1.396       .  A
C719        H723   1.084       .  S
C720        C724   1.453       .  S
C720        C721   1.406       .  A
C721        C722   1.392       .  A
C721       Br733   1.919       .  S
C722        H725   1.084       .  S
C724        C726   1.398       .  A
C724        C730   1.396       .  A
C726        C727   1.395       .  A
C726        H731   1.084       .  S
C727        C728   1.417       .  A
C727       Br735   1.923       .  S
C728        C729   1.411       .  A
C729        C730   1.384       .  A
C729        H732   1.083       .  S
C730       Br736   1.921       .  S
C737        C738   1.413       .  A
C737        C742   1.402       .  A
C738        C739   1.390       .  A
C738       Br754   1.922       .  S
C739        C740   1.397       .  A
C739        H743   1.084   1_565  S
C740        C744   1.461   1_565  S
C740        C741   1.405       .  A
C741        C742   1.392       .  A
C741       Br753   1.918       .  S
C742        H745   1.083       .  S
C744        C746   1.398       .  A
C744        C750   1.407       .  A
C746        C747   1.388       .  A
C746        H751   1.084       .  S
C747        C748   1.407       .  A
C747       Br755   1.918       .  S
C748        C749   1.400       .  A
C749        C750   1.395       .  A
C749        H752   1.083       .  S
C750       Br756   1.919   1_545  S
C757        C758   1.416       .  A
C757        C762   1.406       .  A
C758        C759   1.398       .  A
C758       Br774   1.924       .  S
C759        C760   1.399       .  A
C759        H763   1.085       .  S
C760        C764   1.482       .  S
C760        C761   1.409       .  A
C761        C762   1.406       .  A
C761       Br773   1.916       .  S
C762        H765   1.083       .  S
C764        C766   1.399       .  A
C764        C770   1.408       .  A
C766        C767   1.398       .  A
C766        H771   1.083       .  S
C767        C768   1.417       .  A
C767       Br775   1.924       .  S
C768        C769   1.407       .  A
C769        C770   1.405       .  A
C769        H772   1.083       .  S
C770       Br776   1.916       .  S
C777        C778   1.423       .  A
C777        C782   1.413       .  A
C778        C779   1.407       .  A
C778       Br794   1.921       .  S
C779        C780   1.402       .  A
C779        H783   1.086       .  S
C780        C784   1.497       .  S
C780        C781   1.408       .  A
C781        C782   1.408       .  A
C781       Br793   1.917       .  S
C782        H785   1.083       .  S
C784        C786   1.401       .  A
C784        C790   1.412       .  A
C786        C787   1.403       .  A
C786        H791   1.084       .  S
C787        C788   1.417       .  A
C787       Br795   1.922       .  S
C788        C789   1.409       .  A
C789        C790   1.413       .  A
C789        H792   1.083       .  S
C790       Br796   1.916       .  S
C797        C798   1.411       .  A
C797        C802   1.403       .  A
C798        C799   1.392       .  A
C798       Br814   1.919       .  S
C799        C800   1.397       .  A
C799        H803   1.084       .  S
C800        C804   1.458       .  S
C800        C801   1.402       .  A
C801        C802   1.393       .  A
C801       Br813   1.918       .  S
C802        H805   1.084       .  S
C804        C806   1.401       .  A
C804        C810   1.397       .  A
C806        C807   1.396       .  A
C806        H811   1.084       .  S
C807        C808   1.413       .  A
C807       Br815   1.922       .  S
C808        C809   1.410       .  A
C809        C810   1.387       .  A
C809        H812   1.084       .  S
C810       Br816   1.919       .  S
C817        C818   1.412       .  A
C817        C822   1.406       .  A
C818        C819   1.406       .  A
C818       Br834   1.919       .  S
C819        C820   1.407       .  A
C819        H823   1.084       .  S
C820        C824   1.493       .  S
C820        C821   1.411       .  A
C821        C822   1.399       .  A
C821       Br833   1.922       .  S
C822        H825   1.084       .  S
C824        C826   1.407       .  A
C824        C830   1.408       .  A
C826        C827   1.407       .  A
C826        H831   1.083       .  S
C827        C828   1.419       .  A
C827       Br835   1.921       .  S
C828        C829   1.412       .  A
C829        C830   1.397       .  A
C829        H832   1.083       .  S
C830       Br836   1.921       .  S
C837        C838   1.415       .  A
C837        C842   1.409       .  A
C838        C839   1.393       .  A
C838       Br854   1.921   1_556  S
C839        C840   1.397       .  A
C839        H843   1.084   1_556  S
C840        C844   1.455   1_565  S
C840        C841   1.399   1_565  A
C841        C842   1.389   1_545  A
C841       Br853   1.920       .  S
C842        H845   1.083       .  S
C844        C846   1.395   1_556  A
C844        C850   1.407       .  A
C846        C847   1.386       .  A
C846        H851   1.085       .  S
C847        C848   1.407       .  A
C847       Br855   1.922       .  S
C848        C849   1.398   1_554  A
C849        C850   1.395       .  A
C849        H852   1.084       .  S
C850       Br856   1.918       .  S
C857        C858   1.412       .  A
C857        C862   1.406       .  A
C858        C859   1.396       .  A
C858       Br874   1.921       .  S
C859        C860   1.400       .  A
C859        H863   1.084       .  S
C860        C864   1.484       .  S
C860        C861   1.410       .  A
C861        C862   1.408       .  A
C861       Br873   1.916       .  S
C862        H865   1.083       .  S
C864        C866   1.402       .  A
C864        C870   1.406       .  A
C866        C867   1.404       .  A
C866        H871   1.085       .  S
C867        C868   1.420       .  A
C867       Br875   1.920       .  S
C868        C869   1.409       .  A
C869        C870   1.399       .  A
C869        H872   1.084       .  S
C870       Br876   1.918       .  S
C877        C878   1.419       .  A
C877        C882   1.407       .  A
C878        C879   1.407       .  A
C878       Br894   1.922       .  S
C879        C880   1.403       .  A
C879        H883   1.083   1_545  S
C880        C884   1.496   1_545  S
C880        C881   1.411       .  A
C881        C882   1.406       .  A
C881       Br893   1.917       .  S
C882        H885   1.083       .  S
C884        C886   1.407       .  A
C884        C890   1.408       .  A
C886        C887   1.412       .  A
C886        H891   1.083       .  S
C887        C888   1.416       .  A
C887       Br895   1.919       .  S
C888        C889   1.409       .  A
C889        C890   1.400       .  A
C889        H892   1.083       .  S
C890       Br896   1.920   1_565  S
C897        C898   1.416       .  A
C897        C902   1.412       .  A
C898        C899   1.408       .  A
C898       Br914   1.920       .  S
C899        C900   1.406       .  A
C899        H903   1.084       .  S
C900        C904   1.490       .  S
C900        C901   1.405       .  A
C901        C902   1.400       .  A
C901       Br913   1.920       .  S
C902        H905   1.083       .  S
C904        C906   1.407       .  A
C904        C910   1.405       .  A
C906        C907   1.410       .  A
C906        H911   1.083       .  S
C907        C908   1.417       .  A
C907       Br915   1.919       .  S
C908        C909   1.409       .  A
C909        C910   1.398       .  A
C909        H912   1.083       .  S
C910       Br916   1.920       .  S
C917        C918   1.410       .  A
C917        C922   1.406       .  A
C918        C919   1.395       .  A
C918       Br934   1.919       .  S
C919        C920   1.399       .  A
C919        H923   1.082       .  S
C920        C924   1.458       .  S
C920        C921   1.401       .  A
C921        C922   1.390       .  A
C921       Br933   1.920       .  S
C922        H925   1.084       .  S
C924        C926   1.399       .  A
C924        C930   1.402       .  A
C926        C927   1.394       .  A
C926        H931   1.084       .  S
C927        C928   1.410       .  A
C927       Br935   1.920       .  S
C928        C929   1.403       .  A
C929        C930   1.390       .  A
C929        H932   1.084       .  S
C930       Br936   1.918       .  S
C937        C938   1.414       .  A
C937        C942   1.405       .  A
C938        C939   1.387       .  A
C938       Br954   1.917       .  S
C939        C940   1.392       .  A
C939        H943   1.084       .  S
C940        C944   1.458       .  S
C940        C941   1.405       .  A
C941        C942   1.398       .  A
C941       Br953   1.919       .  S
C942        H945   1.083       .  S
C944        C946   1.401       .  A
C944        C950   1.402       .  A
C946        C947   1.394       .  A
C946        H951   1.084       .  S
C947        C948   1.407       .  A
C947       Br955   1.920       .  S
C948        C949   1.404       .  A
C949        C950   1.390       .  A
C949        H952   1.084       .  S
C950       Br956   1.920       .  S
C957        C958   1.415       .  A
C957        C962   1.408       .  A
C958        C959   1.407       .  A
C958       Br974   1.920       .  S
C959        C960   1.408       .  A
C959        H963   1.083       .  S
C960        C964   1.497   1_545  S
C960        C961   1.410       .  A
C961        C962   1.403       .  A
C961       Br973   1.918       .  S
C962        H965   1.083       .  S
C964        C966   1.408       .  A
C964        C970   1.410       .  A
C966        C967   1.406       .  A
C966        H971   1.084       .  S
C967        C968   1.414       .  A
C967       Br975   1.920       .  S
C968        C969   1.407       .  A
C969        C970   1.403       .  A
C969        H972   1.085       .  S
C970       Br976   1.918       .  S
C977        C978   1.416       .  A
C977        C982   1.409       .  A
C978        C979   1.404       .  A
C978       Br994   1.921       .  S
C979        C980   1.406       .  A
C979        H983   1.083       .  S
C980        C984   1.494   1_455  S
C980        C981   1.409       .  A
C981        C982   1.402       .  A
C981       Br993   1.919       .  S
C982        H985   1.083       .  S
C984        C986   1.405       .  A
C984        C990   1.410       .  A
C986        C987   1.404       .  A
C986        H991   1.083       .  S
C987        C988   1.415       .  A
C987       Br995   1.921       .  S
C988        C989   1.406       .  A
C989        C990   1.404       .  A
C989        H992   1.083       .  S
C990       Br996   1.919       .  S
C997        C998   1.413       .  A
C997       C1002   1.403       .  A
C998        C999   1.389       .  A
C998      Br1014   1.921       .  S
C999       C1000   1.395       .  A
C999       H1003   1.085       .  S
C1000      C1004   1.459       .  S
C1000      C1001   1.405       .  A
C1001      C1002   1.396       .  A
C1001     Br1013   1.918       .  S
C1002      H1005   1.084       .  S
C1004      C1006   1.398       .  A
C1004      C1010   1.403       .  A
C1006      C1007   1.396       .  A
C1006      H1011   1.084       .  S
C1007      C1008   1.413       .  A
C1007     Br1015   1.921       .  S
C1008      C1009   1.403       .  A
C1009      C1010   1.390       .  A
C1009      H1012   1.084       .  S
C1010     Br1016   1.920       .  S
C1017      C1018   1.413       .  A
C1017      C1022   1.406       .  A
C1018      C1019   1.399       .  A
C1018     Br1034   1.922       .  S
C1019      C1020   1.401       .  A
C1019      H1023   1.084       .  S
C1020      C1024   1.489       .  S
C1020      C1021   1.411       .  A
C1021      C1022   1.408       .  A
C1021     Br1033   1.917       .  S
C1022      H1025   1.083       .  S
C1024      C1026   1.401       .  A
C1024      C1030   1.410       .  A
C1026      C1027   1.402       .  A
C1026      H1031   1.084       .  S
C1027      C1028   1.417       .  A
C1027     Br1035   1.921       .  S
C1028      C1029   1.407       .  A
C1029      C1030   1.405       .  A
C1029      H1032   1.083       .  S
C1030     Br1036   1.919       .  S
C1037      C1038   1.418       .  A
C1037      C1042   1.409       .  A
C1038      C1039   1.404       .  A
C1038     Br1054   1.922       .  S
C1039      C1040   1.406       .  A
C1039      H1043   1.084       .  S
C1040      C1044   1.498       .  S
C1040      C1041   1.412       .  A
C1041      C1042   1.400       .  A
C1041     Br1053   1.921       .  S
C1042      H1045   1.084       .  S
C1044      C1046   1.406       .  A
C1044      C1050   1.413       .  A
C1046      C1047   1.402       .  A
C1046      H1051   1.082       .  S
C1047      C1048   1.415       .  A
C1047     Br1055   1.921       .  S
C1048      C1049   1.408       .  A
C1049      C1050   1.404       .  A
C1049      H1052   1.083       .  S
C1050     Br1056   1.920       .  S
C1057      C1058   1.417       .  A
C1057      C1062   1.404       .  A
C1058      C1059   1.399       .  A
C1058     Br1074   1.921       .  S
C1059      C1060   1.400       .  A
C1059      H1063   1.085       .  S
C1060      C1064   1.484       .  S
C1060      C1061   1.410       .  A
C1061      C1062   1.400       .  A
C1061     Br1073   1.920       .  S
C1062      H1065   1.084       .  S
C1064      C1066   1.403       .  A
C1064      C1070   1.410       .  A
C1066      C1067   1.399       .  A
C1066      H1071   1.083       .  S
C1067      C1068   1.413       .  A
C1067     Br1075   1.922       .  S
C1068      C1069   1.405       .  A
C1069      C1070   1.401       .  A
C1069      H1072   1.083       .  S
C1070     Br1076   1.920       .  S
C1077      C1078   1.416       .  A
C1077      C1082   1.406       .  A
C1078      C1079   1.404       .  A
C1078     Br1094   1.922       .  S
C1079      C1080   1.403       .  A
C1079      H1083   1.084       .  S
C1080      C1084   1.489       .  S
C1080      C1081   1.411       .  A
C1081      C1082   1.402       .  A
C1081     Br1093   1.919       .  S
C1082      H1085   1.084       .  S
C1084      C1086   1.403       .  A
C1084      C1090   1.411       .  A
C1086      C1087   1.400       .  A
C1086      H1091   1.084       .  S
C1087      C1088   1.412       .  A
C1087     Br1095   1.922       .  S
C1088      C1089   1.405       .  A
C1089      C1090   1.407       .  A
C1089      H1092   1.083       .  S
C1090     Br1096   1.916       .  S
C1097      C1098   1.418       .  A
C1097      C1102   1.414       .  A
C1098      C1099   1.409       .  A
C1098     Br1114   1.918       .  S
C1099      C1100   1.405       .  A
C1099      H1103   1.085       .  S
C1100      C1104   1.491       .  S
C1100      C1101   1.405       .  A
C1101      C1102   1.401       .  A
C1101     Br1113   1.921       .  S
C1102      H1105   1.084   1_554  S
C1104      C1106   1.405       .  A
C1104      C1110   1.404       .  A
C1106      C1107   1.410       .  A
C1106      H1111   1.084       .  S
C1107      C1108   1.421       .  A
C1107     Br1115   1.920       .  S
C1108      C1109   1.413       .  A
C1109      C1110   1.399       .  A
C1109      H1112   1.083       .  S
C1110     Br1116   1.920       .  S
C1117      C1118   1.418       .  A
C1117      C1122   1.406       .  A
C1118      C1119   1.392       .  A
C1118     Br1134   1.924       .  S
C1119      C1120   1.396       .  A
C1119      H1123   1.084       .  S
C1120      C1124   1.461       .  S
C1120      C1121   1.403       .  A
C1121      C1122   1.393       .  A
C1121     Br1133   1.918       .  S
C1122      H1125   1.083       .  S
C1124      C1126   1.401       .  A
C1124      C1130   1.404       .  A
C1126      C1127   1.393       .  A
C1126      H1131   1.084       .  S
C1127      C1128   1.405       .  A
C1127     Br1135   1.919       .  S
C1128      C1129   1.401       .  A
C1129      C1130   1.393       .  A
C1129      H1132   1.084       .  S
C1130     Br1136   1.919       .  S
C1137      C1138   1.417       .  A
C1137      C1142   1.410       .  A
C1138      C1139   1.402       .  A
C1138     Br1154   1.921       .  S
C1139      C1140   1.404       .  A
C1139      H1143   1.083       .  S
C1140      C1144   1.496       .  S
C1140      C1141   1.411       .  A
C1141      C1142   1.405       .  A
C1141     Br1153   1.920       .  S
C1142      H1145   1.084       .  S
C1144      C1146   1.407       .  A
C1144      C1150   1.411       .  A
C1146      C1147   1.405       .  A
C1146      H1151   1.082       .  S
C1147      C1148   1.414       .  A
C1147     Br1155   1.920       .  S
C1148      C1149   1.407       .  A
C1149      C1150   1.401       .  A
C1149      H1152   1.084       .  S
C1150     Br1156   1.921       .  S
C1157      C1158   1.417       .  A
C1157      C1162   1.408       .  A
C1158      C1159   1.405       .  A
C1158     Br1174   1.921       .  S
C1159      C1160   1.403       .  A
C1159      H1163   1.083       .  S
C1160      C1164   1.492       .  S
C1160      C1161   1.409       .  A
C1161      C1162   1.405       .  A
C1161     Br1173   1.919       .  S
C1162      H1165   1.082       .  S
C1164      C1166   1.404       .  A
C1164      C1170   1.410       .  A
C1166      C1167   1.405       .  A
C1166      H1171   1.082       .  S
C1167      C1168   1.414       .  A
C1167     Br1175   1.920       .  S
C1168      C1169   1.406       .  A
C1169      C1170   1.405       .  A
C1169      H1172   1.083       .  S
C1170     Br1176   1.919       .  S
C1177      C1178   1.410       .  A
C1177      C1182   1.404       .  A
C1178      C1179   1.392       .  A
C1178     Br1194   1.921       .  S
C1179      C1180   1.398       .  A
C1179      H1183   1.084       .  S
C1180      C1184   1.453       .  S
C1180      C1181   1.401       .  A
C1181      C1182   1.388       .  A
C1181     Br1193   1.920       .  S
C1182      H1185   1.084       .  S
C1184      C1186   1.396       .  A
C1184      C1190   1.403       .  A
C1186      C1187   1.389       .  A
C1186      H1191   1.084       .  S
C1187      C1188   1.412       .  A
C1187     Br1195   1.923       .  S
C1188      C1189   1.400       .  A
C1189      C1190   1.390       .  A
C1189      H1192   1.084       .  S
C1190     Br1196   1.918       .  S
C1197      C1198   1.408       .  A
C1197      C1202   1.401       .  A
C1198      C1199   1.385       .  A
C1198     Br1214   1.919       .  S
C1199      C1200   1.394       .  A
C1199      H1203   1.085       .  S
C1200      C1204   1.452       .  S
C1200      C1201   1.405       .  A
C1201      C1202   1.395       .  A
C1201     Br1213   1.919       .  S
C1202      H1205   1.084       .  S
C1204      C1206   1.397       .  A
C1204      C1210   1.401       .  A
C1206      C1207   1.390       .  A
C1206      H1211   1.085       .  S
C1207      C1208   1.411       .  A
C1207     Br1215   1.921       .  S
C1208      C1209   1.406       .  A
C1209      C1210   1.390       .  A
C1209      H1212   1.084       .  S
C1210     Br1216   1.919       .  S
C1217      C1218   1.414       .  A
C1217      C1222   1.407       .  A
C1218      C1219   1.402       .  A
C1218     Br1234   1.920       .  S
C1219      C1220   1.402       .  A
C1219      H1223   1.083       .  S
C1220      C1224   1.485   1_565  S
C1220      C1221   1.408       .  A
C1221      C1222   1.403       .  A
C1221     Br1233   1.918       .  S
C1222      H1225   1.083       .  S
C1224      C1226   1.403       .  A
C1224      C1230   1.409       .  A
C1226      C1227   1.404       .  A
C1226      H1231   1.083       .  S
C1227      C1228   1.414       .  A
C1227     Br1235   1.921       .  S
C1228      C1229   1.406       .  A
C1229      C1230   1.402       .  A
C1229      H1232   1.083       .  S
C1230     Br1236   1.920       .  S
C1237      C1238   1.417       .  A
C1237      C1242   1.410       .  A
C1238      C1239   1.403       .  A
C1238     Br1254   1.920       .  S
C1239      C1240   1.402       .  A
C1239      H1243   1.083       .  S
C1240      C1244   1.473   1_655  S
C1240      C1241   1.402       .  A
C1241      C1242   1.394       .  A
C1241     Br1253   1.920       .  S
C1242      H1245   1.083       .  S
C1244      C1246   1.403       .  A
C1244      C1250   1.404       .  A
C1246      C1247   1.403       .  A
C1246      H1251   1.085       .  S
C1247      C1248   1.412       .  A
C1247     Br1255   1.918       .  S
C1248      C1249   1.408       .  A
C1249      C1250   1.393       .  A
C1249      H1252   1.084       .  S
C1250     Br1256   1.920       .  S
C1257      C1258   1.406       .  A
C1257      C1262   1.406       .  A
C1258      C1259   1.394       .  A
C1258     Br1274   1.919       .  S
C1259      C1260   1.403       .  A
C1259      H1263   1.081       .  S
C1260      C1264   1.459       .  S
C1260      C1261   1.403       .  A
C1261      C1262   1.386       .  A
C1261     Br1273   1.922       .  S
C1262      H1265   1.083       .  S
C1264      C1266   1.398       .  A
C1264      C1270   1.405       .  A
C1266      C1267   1.391       .  A
C1266      H1271   1.084       .  S
C1267      C1268   1.412       .  A
C1267     Br1275   1.920       .  S
C1268      C1269   1.403       .  A
C1269      C1270   1.389       .  A
C1269      H1272   1.084       .  S
C1270     Br1276   1.921       .  S
C1277      C1278   1.413       .  A
C1277      C1282   1.404       .  A
C1278      C1279   1.410       .  A
C1278     Br1294   1.919       .  S
C1279      C1280   1.409       .  A
C1279      H1283   1.083       .  S
C1280      C1284   1.505       .  S
C1280      C1281   1.415       .  A
C1281      C1282   1.406       .  A
C1281     Br1293   1.920       .  S
C1282      H1285   1.084       .  S
C1284      C1286   1.407       .  A
C1284      C1290   1.416       .  A
C1286      C1287   1.406       .  A
C1286      H1291   1.084       .  S
C1287      C1288   1.414       .  A
C1287     Br1295   1.920   1_556  S
C1288      C1289   1.406       .  A
C1289      C1290   1.409       .  A
C1289      H1292   1.084       .  S
C1290     Br1296   1.919       .  S
C1297      C1298   1.412       .  A
C1297      C1302   1.401   1_554  A
C1298      C1299   1.390       .  A
C1298     Br1314   1.921       .  S
C1299      C1300   1.397       .  A
C1299      H1303   1.084       .  S
C1300      C1304   1.463       .  S
C1300      C1301   1.407   1_554  A
C1301      C1302   1.393       .  A
C1301     Br1313   1.919       .  S
C1302      H1305   1.084       .  S
C1304      C1306   1.399   1_554  A
C1304      C1310   1.407       .  A
C1306      C1307   1.390       .  A
C1306      H1311   1.085       .  S
C1307      C1308   1.407       .  A
C1307     Br1315   1.918       .  S
C1308      C1309   1.400   1_556  A
C1309      C1310   1.394       .  A
C1309      H1312   1.084       .  S
C1310     Br1316   1.920       .  S
C1317      C1318   1.412       .  A
C1317      C1322   1.407       .  A
C1318      C1319   1.405       .  A
C1318     Br1334   1.918       .  S
C1319      C1320   1.406       .  A
C1319      H1323   1.083       .  S
C1320      C1324   1.487       .  S
C1320      C1321   1.408       .  A
C1321      C1322   1.399       .  A
C1321     Br1333   1.921       .  S
C1322      H1325   1.083       .  S
C1324      C1326   1.404       .  A
C1324      C1330   1.405       .  A
C1326      C1327   1.406       .  A
C1326      H1331   1.083       .  S
C1327      C1328   1.419       .  A
C1327     Br1335   1.920   1_554  S
C1328      C1329   1.413       .  A
C1329      C1330   1.397       .  A
C1329      H1332   1.082       .  S
C1330     Br1336   1.921       .  S
C1337      C1338   1.419       .  A
C1337      C1342   1.408       .  A
C1338      C1339   1.403       .  A
C1338     Br1354   1.922       .  S
C1339      C1340   1.401       .  A
C1339      H1343   1.083       .  S
C1340      C1344   1.483       .  S
C1340      C1341   1.407       .  A
C1341      C1342   1.400       .  A
C1341     Br1353   1.920       .  S
C1342      H1345   1.083       .  S
C1344      C1346   1.403       .  A
C1344      C1350   1.408       .  A
C1346      C1347   1.400       .  A
C1346      H1351   1.083       .  S
C1347      C1348   1.411       .  A
C1347     Br1355   1.921       .  S
C1348      C1349   1.405       .  A
C1349      C1350   1.402       .  A
C1349      H1352   1.083       .  S
C1350     Br1356   1.918       .  S
C1357      C1358   1.414       .  A
C1357      C1362   1.408       .  A
C1358      C1359   1.398       .  A
C1358     Br1374   1.921       .  S
C1359      C1360   1.400       .  A
C1359      H1363   1.084       .  S
C1360      C1364   1.489       .  S
C1360      C1361   1.411       .  A
C1361      C1362   1.410       .  A
C1361     Br1373   1.917       .  S
C1362      H1365   1.084       .  S
C1364      C1366   1.402       .  A
C1364      C1370   1.408       .  A
C1366      C1367   1.404       .  A
C1366      H1371   1.086       .  S
C1367      C1368   1.419       .  A
C1367     Br1375   1.921       .  S
C1368      C1369   1.410       .  A
C1369      C1370   1.404       .  A
C1369      H1372   1.084       .  S
C1370     Br1376   1.918       .  S
C1377      C1378   1.416       .  A
C1377      C1382   1.408       .  A
C1378      C1379   1.409       .  A
C1378     Br1394   1.918       .  S
C1379      C1380   1.405       .  A
C1379      H1383   1.083       .  S
C1380      C1384   1.487       .  S
C1380      C1381   1.407       .  A
C1381      C1382   1.398       .  A
C1381     Br1393   1.920       .  S
C1382      H1385   1.084       .  S
C1384      C1386   1.400       .  A
C1384      C1390   1.408       .  A
C1386      C1387   1.402       .  A
C1386      H1391   1.084       .  S
C1387      C1388   1.421       .  A
C1387     Br1395   1.923       .  S
C1388      C1389   1.410       .  A
C1389      C1390   1.404       .  A
C1389      H1392   1.083       .  S
C1390     Br1396   1.917       .  S
C1397      C1398   1.403       .  A
C1397      C1402   1.401       .  A
C1398      C1399   1.397       .  A
C1398     Br1414   1.916       .  S
C1399      C1400   1.404       .  A
C1399      H1403   1.082       .  S
C1400      C1404   1.461       .  S
C1400      C1401   1.404       .  A
C1401      C1402   1.387       .  A
C1401     Br1413   1.922       .  S
C1402      H1405   1.083       .  S
C1404      C1406   1.401       .  A
C1404      C1410   1.405       .  A
C1406      C1407   1.392       .  A
C1406      H1411   1.085       .  S
C1407      C1408   1.406       .  A
C1407     Br1415   1.920       .  S
C1408      C1409   1.401       .  A
C1409      C1410   1.391       .  A
C1409      H1412   1.084       .  S
C1410     Br1416   1.919       .  S
C1417      C1418   1.408       .  A
C1417      C1422   1.401       .  A
C1418      C1419   1.393       .  A
C1418     Br1434   1.919       .  S
C1419      C1420   1.400       .  A
C1419      H1423   1.083       .  S
C1420      C1424   1.458       .  S
C1420      C1421   1.404       .  A
C1421      C1422   1.391       .  A
C1421     Br1433   1.919       .  S
C1422      H1425   1.084       .  S
C1424      C1426   1.396       .  A
C1424      C1430   1.403       .  A
C1426      C1427   1.392       .  A
C1426      H1431   1.084       .  S
C1427      C1428   1.414       .  A
C1427     Br1435   1.923       .  S
C1428      C1429   1.404       .  A
C1429      C1430   1.392       .  A
C1429      H1432   1.084       .  S
C1430     Br1436   1.919       .  S
C1437      C1438   1.411       .  A
C1437      C1442   1.404       .  A
C1438      C1439   1.399       .  A
C1438     Br1454   1.920       .  S
C1439      C1440   1.403       .  A
C1439      H1443   1.083       .  S
C1440      C1444   1.494       .  S
C1440      C1441   1.415       .  A
C1441      C1442   1.408       .  A
C1441     Br1453   1.919       .  S
C1442      H1445   1.082       .  S
C1444      C1446   1.401       .  A
C1444      C1450   1.412       .  A
C1446      C1447   1.401       .  A
C1446      H1451   1.084       .  S
C1447      C1448   1.420       .  A
C1447     Br1455   1.922       .  S
C1448      C1449   1.410       .  A
C1449      C1450   1.406       .  A
C1449      H1452   1.084       .  S
C1450     Br1456   1.920       .  S
C1457      C1458   1.418       .  A
C1457      C1462   1.412       .  A
C1458      C1459   1.406       .  A
C1458     Br1474   1.921       .  S
C1459      C1460   1.405       .  A
C1459      H1463   1.084       .  S
C1460      C1464   1.486       .  S
C1460      C1461   1.405       .  A
C1461      C1462   1.397       .  A
C1461     Br1473   1.918       .  S
C1462      H1465   1.083       .  S
C1464      C1466   1.405       .  A
C1464      C1470   1.406       .  A
C1466      C1467   1.408       .  A
C1466      H1471   1.084       .  S
C1467      C1468   1.417       .  A
C1467     Br1475   1.920       .  S
C1468      C1469   1.408       .  A
C1469      C1470   1.398       .  A
C1469      H1472   1.083       .  S
C1470     Br1476   1.920       .  S
