geometry optimzed in LAMMPS
_audit_creation_date              2020-12-01 
_audit_creation_method            'lammps2cif' 
_symmetry_space_group_name_H-M    'P1' 
_symmetry_Int_Tables_number       1 
_symmetry_cell_setting            triclinic 
loop_ 
_symmetry_equiv_pos_as_xyz 
  x,y,z 
_cell_length_a                    53.29036059 
_cell_length_b                    53.19910592904927 
_cell_length_c                    32.961418785577855 
_cell_angle_alpha                 90.01450939424367 
_cell_angle_beta                  89.75257506775158 
_cell_angle_gamma                 90.06380730261253 
loop_ 
_atom_site_label 
_atom_site_type_symbol 
_atom_site_fract_x 
_atom_site_fract_y 
_atom_site_fract_z 
_atom_site_charge 
N1          N  0.61728400  0.75130519  0.92069243    -0.26000
N2          N  0.63851847  0.75007767  0.94117352    -0.33900
C3          C  0.65779942  0.74866531  0.91477359     0.02300
C4          C  0.64816707  0.74903307  0.87574433     0.08400
C5          C  0.62246575  0.75069768  0.88074589    -0.04700
H6          H  0.67723453  0.74689262  0.92357350     0.09000
H7          H  0.60848337  0.75093079  0.85704933     0.10200
Cu8        Cu  0.64018801  0.74882452  0.00404593     0.44200
Cu9        Cu  0.58212333  0.75274269  0.94774890     0.42000
Cu10       Cu  0.58052818  0.74822801  0.05726270     0.43900
N11         N  0.63666909  0.74491544  0.06646009    -0.33400
N12         N  0.61490988  0.74434568  0.08586061    -0.27700
C13         C  0.61908788  0.74031538  0.12555907    -0.03800
C14         C  0.64468071  0.73833436  0.13148790     0.08500
C15         C  0.65526156  0.74134644  0.09328761     0.02300
H16         H  0.60452234  0.73857351  0.14836212     0.09900
H17         H  0.67492013  0.74040525  0.08516482     0.09000
N18         N  0.54874605  0.75204676  0.02169488    -0.34900
N19         N  0.54930412  0.75359516  0.98170487    -0.27000
C20         C  0.52568282  0.75548884  0.96786582    -0.02300
C21         C  0.50934579  0.75515289  0.00076509     0.06300
C22         C  0.52476472  0.75296303  0.03439627     0.04400
H23         H  0.52090260  0.75701968  0.93612042     0.09500
H24         H  0.51908897  0.75167684  0.06585922     0.08400
N25         N  0.29402782  0.74724688  0.08271514    -0.26000
N26         N  0.27265446  0.74169906  0.06442605    -0.33900
C27         C  0.25499856  0.73761348  0.09322826     0.02300
C28         C  0.26590857  0.74076695  0.13126957     0.08400
C29         C  0.29057130  0.74690462  0.12313517    -0.04700
H30         H  0.23583042  0.73228427  0.08682858     0.09000
H31         H  0.30522841  0.75020042  0.14512863     0.10200
Cu32       Cu  0.26912916  0.73902412  0.00077160     0.44200
Cu33       Cu  0.32797728  0.75320009  0.05355406     0.42000
Cu34       Cu  0.32856943  0.74773008  0.94666274     0.43900
N35         N  0.27296759  0.73790373  0.93700042    -0.33400
N36         N  0.29473432  0.74140698  0.91834440    -0.27700
C37         C  0.29156512  0.73968271  0.87806721    -0.03800
C38         C  0.26667290  0.73475475  0.87035048     0.08500
C39         C  0.25528299  0.73371644  0.90848321     0.02300
H40         H  0.30649359  0.74156452  0.85591087     0.09900
H41         H  0.23571082  0.73011721  0.91509528     0.09000
N42         N  0.36086284  0.75296227  0.97980894    -0.34900
N43         N  0.36067303  0.75516678  0.01965046    -0.27000
C44         C  0.38440132  0.75733173  0.03280606    -0.02300
C45         C  0.40045725  0.75640677  0.99951010     0.06300
C46         C  0.38468399  0.75365638  0.96638111     0.04400
H47         H  0.38944722  0.75878915  0.06446103     0.09500
H48         H  0.38995933  0.75182847  0.93480733     0.08400
N49         N  0.74148330  0.30997967  0.92096678    -0.26000
N50         N  0.73891831  0.28826087  0.94009601    -0.33900
C51         C  0.73499785  0.27011084  0.91208074     0.02300
C52         C  0.73523866  0.28110153  0.87366258     0.08400
C53         C  0.73940234  0.30630943  0.88078596    -0.04700
H54         H  0.73213495  0.25047263  0.91923151     0.09000
H55         H  0.74052573  0.32108314  0.85829231     0.10200
Cu56       Cu  0.74092430  0.28526154  0.00385750     0.44200
Cu57       Cu  0.74653179  0.34430720  0.94922656     0.42000
Cu58       Cu  0.74775095  0.34559439  0.05748666     0.43900
N59         N  0.74356906  0.28895412  0.06745751    -0.33400
N60         N  0.74607321  0.31078222  0.08635895    -0.27700
C61         C  0.74600951  0.30685774  0.12673539    -0.03800
C62         C  0.74334854  0.28139739  0.13405326     0.08500
C63         C  0.74188611  0.27059500  0.09563894     0.02300
H64         H  0.74701465  0.32161996  0.14924957     0.09900
H65         H  0.73891046  0.25097296  0.08855415     0.09000
N66         N  0.74822271  0.37802435  0.02207964    -0.34900
N67         N  0.74803496  0.37737961  0.98206560    -0.27000
C68         C  0.74817823  0.40100796  0.96760789    -0.02300
C69         C  0.74846049  0.41759059  0.00012388     0.06300
C70         C  0.74846715  0.40218121  0.03424535     0.04400
H71         H  0.74803843  0.40559191  0.93567351     0.09500
H72         H  0.74846023  0.40794741  0.06568247     0.08400
N73         N  0.73767010  0.63480727  0.91380593    -0.26000
N74         N  0.73602970  0.65594194  0.93483911    -0.33900
C75         C  0.73270179  0.67521791  0.90885250     0.02300
C76         C  0.73222640  0.66579742  0.86949216     0.08400
C77         C  0.73538696  0.64012034  0.87400426    -0.04700
H78         H  0.73028427  0.69454802  0.91819217     0.09000
H79         H  0.73563794  0.62622277  0.85004318     0.10200
Cu80       Cu  0.73758564  0.65765991  0.99834154     0.44200
Cu81       Cu  0.74232001  0.59941455  0.94008808     0.42000
Cu82       Cu  0.74872778  0.59905558  0.04973450     0.43900
N83         N  0.73929620  0.65426254  0.06163562    -0.33400
N84         N  0.74362599  0.63268667  0.08019779    -0.27700
C85         C  0.74225661  0.63613807  0.12059614    -0.03800
C86         C  0.73678252  0.66109715  0.12815670     0.08500
C87         C  0.73506323  0.67207337  0.08993623     0.02300
H88         H  0.74415816  0.62132058  0.14284808     0.09900
H89         H  0.73018371  0.69131295  0.08297046     0.09000
N90         N  0.74955330  0.56697165  0.01426233    -0.34900
N91         N  0.74690119  0.56678131  0.97443841    -0.27000
C92         C  0.74690011  0.54274033  0.96154026    -0.02300
C93         C  0.74963279  0.52698095  0.99493732     0.06300
C94         C  0.75132348  0.54322610  0.02775163     0.04400
H95         H  0.74460756  0.53726676  0.93019556     0.09500
H96         H  0.75310934  0.53835472  0.05941735     0.08400
N97         N  0.30942875  0.19722905  0.07138930    -0.26000
N98         N  0.28902888  0.19286751  0.04981118    -0.33900
C99         C  0.26895079  0.19247835  0.07462150     0.02300
C100        C  0.27685157  0.19710429  0.11377800     0.08400
C101        C  0.30272669  0.20001207  0.11069746    -0.04700
H102        H  0.24977452  0.19029145  0.06456118     0.09000
H103        H  0.31564121  0.20444102  0.13489338     0.10200
Cu104      Cu  0.28862832  0.19135533  0.98694713     0.44200
Cu105      Cu  0.34497628  0.20029696  0.04459272     0.42000
Cu106      Cu  0.34686485  0.20013471  0.93288247     0.43900
N107        N  0.29079990  0.19641382  0.92463203    -0.33400
N108        N  0.31202723  0.19994203  0.90455834    -0.27700
C109        C  0.30672013  0.20443908  0.86527381    -0.03800
C110        C  0.28091823  0.20369453  0.86042252     0.08500
C111        C  0.27146374  0.19857344  0.89882925     0.02300
H112        H  0.32057371  0.20862270  0.84216301     0.09900
H113        H  0.25199707  0.19731108  0.90794105     0.09000
N114        N  0.37855584  0.20122629  0.96959631    -0.34900
N115        N  0.37787526  0.20158384  0.00971678    -0.27000
C116        C  0.40155203  0.20244664  0.02373279    -0.02300
C117        C  0.41808492  0.20259826  0.99098753     0.06300
C118        C  0.40266137  0.20179084  0.95715022     0.04400
H119        H  0.40625664  0.20259639  0.05558723     0.09500
H120        H  0.40840074  0.20171734  0.92566391     0.08400
N121        N  0.63105762  0.19941709  0.09041231    -0.26000
N122        N  0.65294033  0.19590763  0.07230429    -0.33900
C123        C  0.67125170  0.19665116  0.10021416     0.02300
C124        C  0.66037359  0.20082554  0.13791383     0.08400
C125        C  0.63487078  0.20244030  0.13048514    -0.04700
H126        H  0.69100652  0.19500142  0.09312735     0.09000
H127        H  0.62022829  0.20626777  0.15245086     0.10200
Cu128      Cu  0.65712521  0.19226041  0.01009092     0.44200
Cu129      Cu  0.59737520  0.20116941  0.05883778     0.42000
Cu130      Cu  0.60158291  0.19954137  0.94814616     0.43900
N131        N  0.65785663  0.19320330  0.94730485    -0.33400
N132        N  0.63783396  0.19676848  0.92446393    -0.27700
C133        C  0.64522689  0.19883462  0.88544987    -0.03800
C134        C  0.67113171  0.19627027  0.88386613     0.08500
C135        C  0.67840416  0.19259934  0.92354739     0.02300
H136        H  0.63270428  0.20238691  0.86037026     0.09900
H137        H  0.69740552  0.19083419  0.93460653     0.09000
N138        N  0.56785389  0.20111159  0.98041767    -0.34900
N139        N  0.56645893  0.20179961  0.02046245    -0.27000
C140        C  0.54218177  0.20260111  0.03169871    -0.02300
C141        C  0.52734607  0.20239570  0.99715096     0.06300
C142        C  0.54443191  0.20140576  0.96519586     0.04400
H143        H  0.53593272  0.20301564  0.06293026     0.09500
H144        H  0.54027410  0.20100808  0.93312713     0.08400
N145        N  0.17839714  0.64028288  0.08282574    -0.26000
N146        N  0.17059765  0.65993993  0.06188702    -0.33900
C147        C  0.17097506  0.68042571  0.08569729     0.02300
C148        C  0.17962228  0.67348560  0.12342715     0.08400
C149        C  0.18412912  0.64783779  0.12066229    -0.04700
H150        H  0.16647562  0.69924092  0.07564164     0.09000
H151        H  0.19148278  0.63562371  0.14397240     0.10200
Cu152      Cu  0.16401730  0.65922757  0.00037859     0.44200
Cu153      Cu  0.18193320  0.60453349  0.05763718     0.42000
Cu154      Cu  0.18183940  0.60296903  0.94713648     0.43900
N155        N  0.16986294  0.65789102  0.93863620    -0.33400
N156        N  0.17775493  0.63768868  0.91907891    -0.27700
C157        C  0.18351295  0.64414675  0.88065600    -0.03800
C158        C  0.17892059  0.66966423  0.87611175     0.08500
C159        C  0.17017101  0.67764845  0.91333544     0.02300
H160        H  0.19117578  0.63136907  0.85830277     0.09900
H161        H  0.16585770  0.69675953  0.92214745     0.09000
N162        N  0.18298292  0.57108171  0.98350111    -0.34900
N163        N  0.18297717  0.57153748  0.02358931    -0.27000
C164        C  0.18324405  0.54774222  0.03750839    -0.02300
C165        C  0.18340709  0.53139056  0.00459887     0.06300
C166        C  0.18324973  0.54704702  0.97088456     0.04400
H167        H  0.18311226  0.54285392  0.06932967     0.09500
H168        H  0.18332688  0.54155765  0.93932431     0.08400
N169        N  0.20719996  0.31567483  0.08603088    -0.26000
N170        N  0.21137226  0.29469722  0.06553917    -0.33900
C171        C  0.21633889  0.27606104  0.09198225     0.02300
C172        C  0.21516469  0.28577585  0.13106032     0.08400
C173        C  0.20933178  0.31091035  0.12597688    -0.04700
H174        H  0.22020289  0.25685320  0.08321959     0.09000
H175        H  0.20675058  0.32475652  0.14967694     0.10200
Cu176      Cu  0.20914038  0.29220374  0.00247682     0.44200
Cu177      Cu  0.19887896  0.34998263  0.05890674     0.42000
Cu178      Cu  0.19558782  0.35031551  0.94925547     0.43900
N179        N  0.20375059  0.29444334  0.93991021    -0.33400
N180        N  0.19883584  0.31566016  0.92062815    -0.27700
C181        C  0.19631914  0.31081783  0.88076773    -0.03800
C182        C  0.19969001  0.28534206  0.87448811     0.08500
C183        C  0.20443638  0.27552828  0.91274997     0.02300
H184        H  0.19249162  0.32488179  0.85792181     0.09900
H185        H  0.20840044  0.25618445  0.92044731     0.09000
N186        N  0.19201788  0.38242286  0.98472311    -0.34900
N187        N  0.19292578  0.38231558  0.02475994    -0.27000
C188        C  0.19048710  0.40605163  0.03836983    -0.02300
C189        C  0.18797404  0.42204196  0.00528865     0.06300
C190        C  0.18900886  0.40620143  0.97178514     0.04400
H191        H  0.19094116  0.41117631  0.07008612     0.09500
H192        H  0.18813173  0.41144285  0.94015973     0.08400
N193        N  0.67382064  0.80818940  0.41096311    -0.26000
N194        N  0.67258221  0.78640926  0.43011153    -0.33900
C195        C  0.67532674  0.76770059  0.40306967     0.02300
C196        C  0.67852697  0.77822921  0.36492887     0.08400
C197        C  0.67736744  0.80392411  0.37110760    -0.04700
H198        H  0.67606227  0.74801604  0.41112549     0.09000
H199        H  0.68004091  0.81846815  0.34855640     0.10200
Cu200      Cu  0.67069034  0.78308479  0.49262494     0.44200
Cu201      Cu  0.67326536  0.84243356  0.44095971     0.42000
Cu202      Cu  0.67849726  0.83998759  0.55137843     0.43900
N203        N  0.67473087  0.78346701  0.55507842    -0.33400
N204        N  0.67855133  0.80407834  0.57662065    -0.27700
C205        C  0.68246325  0.79754902  0.61558242    -0.03800
C206        C  0.68084626  0.77157220  0.61855923     0.08500
C207        C  0.67584161  0.76336004  0.57968686     0.02300
H208        H  0.68635558  0.81074347  0.63971971     0.09900
H209        H  0.67404098  0.74406756  0.56971311     0.09000
N210        N  0.67623593  0.87317234  0.51802251    -0.34900
N211        N  0.67419788  0.87388939  0.47808620    -0.27000
C212        C  0.67317880  0.89797458  0.46597175    -0.02300
C213        C  0.67464073  0.91340229  0.49984084     0.06300
C214        C  0.67653849  0.89687830  0.53233060     0.04400
H215        H  0.67149841  0.90365318  0.43461703     0.09500
H216        H  0.67829484  0.90160667  0.56409325     0.08400
N217        N  0.69438887  0.12823967  0.41843369    -0.26000
N218        N  0.69911804  0.14920505  0.43850697    -0.33900
C219        C  0.70304154  0.16792949  0.41183985     0.02300
C220        C  0.70066972  0.15830005  0.37293528     0.08400
C221        C  0.69528928  0.13305279  0.37833723    -0.04700
H222        H  0.70769328  0.18698919  0.42040405     0.09000
H223        H  0.69242904  0.11915710  0.35483446     0.10200
Cu224      Cu  0.70011928  0.15144154  0.50130106     0.44200
Cu225      Cu  0.68739419  0.09420416  0.44720655     0.42000
Cu226      Cu  0.68595355  0.09473895  0.55799558     0.43900
N227        N  0.69778325  0.15016710  0.56410095    -0.33400
N228        N  0.69224517  0.12962969  0.58489013    -0.27700
C229        C  0.69185562  0.13530472  0.62469891    -0.03800
C230        C  0.69743187  0.16057264  0.62921144     0.08500
C231        C  0.70110635  0.16940172  0.59005384     0.02300
H232        H  0.68799097  0.12195423  0.64868662     0.09900
H233        H  0.70590298  0.18831318  0.58084080     0.09000
N234        N  0.68172621  0.06241540  0.52293547    -0.34900
N235        N  0.68221371  0.06241396  0.48284012    -0.27000
C236        C  0.67989221  0.03867775  0.46944799    -0.02300
C237        C  0.67789410  0.02269739  0.50260280     0.06300
C238        C  0.67908673  0.03857778  0.53605912     0.04400
H239        H  0.68012385  0.03358957  0.43770100     0.09500
H240        H  0.67863727  0.03328924  0.56771181     0.08400
N241        N  0.79480381  0.69926224  0.58413354    -0.26000
N242        N  0.77300000  0.70146181  0.56539602    -0.33900
C243        C  0.75512632  0.70640467  0.59348536     0.02300
C244        C  0.76637163  0.70730852  0.63154964     0.08400
C245        C  0.79143779  0.70267048  0.62418348    -0.04700
H246        H  0.73552576  0.70933313  0.58656044     0.09000
H247        H  0.80632511  0.70214475  0.64638971     0.10200
Cu248      Cu  0.76931816  0.69828966  0.50200562     0.44200
Cu249      Cu  0.82886802  0.69266848  0.55562124     0.42000
Cu250      Cu  0.82881329  0.68787502  0.44799691     0.43900
N251        N  0.77275627  0.69559806  0.43847184    -0.33400
N252        N  0.79439080  0.69192298  0.41948259    -0.27700
C253        C  0.79061248  0.69239188  0.37915743    -0.03800
C254        C  0.76543501  0.69646041  0.37194973     0.08500
C255        C  0.75462367  0.69841185  0.41035924     0.02300
H256        H  0.80531761  0.69053469  0.35661180     0.09900
H257        H  0.73520705  0.70242713  0.41748048     0.09000
N258        N  0.86141148  0.68594333  0.48207066    -0.34900
N259        N  0.86139039  0.68763720  0.52201482    -0.27000
C260        C  0.88516698  0.68655267  0.53539954    -0.02300
C261        C  0.90110229  0.68412339  0.50219569     0.06300
C262        C  0.88522624  0.68377825  0.46887248     0.04400
H263        H  0.89038624  0.68810525  0.56697265     0.09500
H264        H  0.89048002  0.68228605  0.43723513     0.08400
N265        N  0.11662127  0.68794250  0.41833450    -0.26000
N266        N  0.13775084  0.69038059  0.43874590    -0.33900
C267        C  0.15673901  0.69449546  0.41273591     0.02300
C268        C  0.14711588  0.69470303  0.37382494     0.08400
C269        C  0.12163531  0.69043073  0.37847992    -0.04700
H270        H  0.17593712  0.69764216  0.42190148     0.09000
H271        H  0.10768889  0.68982219  0.35474965     0.10200
Cu272      Cu  0.13990680  0.69005112  0.50096971     0.44200
Cu273      Cu  0.08204313  0.68345334  0.44666783     0.42000
Cu274      Cu  0.08198004  0.68990536  0.55735592     0.43900
N275        N  0.13825519  0.69231123  0.56315426    -0.33400
N276        N  0.11712757  0.69251489  0.58425338    -0.27700
C277        C  0.12270646  0.69463979  0.62389203    -0.03800
C278        C  0.14854156  0.69586155  0.62767892     0.08500
C279        C  0.15779345  0.69432494  0.58849875     0.02300
H280        H  0.10898220  0.69541771  0.64813500     0.09900
H281        H  0.17718952  0.69476848  0.57878006     0.09000
N282        N  0.04979185  0.68582524  0.52242838    -0.34900
N283        N  0.04991052  0.68316676  0.48252546    -0.27000
C284        C  0.02612093  0.68138422  0.46944897    -0.02300
C285        C  0.01008976  0.68300829  0.50260872     0.06300
C286        C  0.02588103  0.68577121  0.53569849     0.04400
H287        H  0.02099084  0.67922443  0.43791746     0.09500
H288        H  0.02047256  0.68810776  0.56714925     0.08400
C289        C  0.69920438  0.73795934  0.79464352     0.03600
C290        C  0.71701739  0.71832125  0.79159554     0.03500
C291        C  0.72711593  0.71228641  0.75313611    -0.17000
C292        C  0.72023106  0.72581924  0.71795051     0.03600
C293        C  0.70290500  0.74592307  0.72175140     0.03500
C294        C  0.69275937  0.75172471  0.75988015    -0.17000
H295        H  0.67973440  0.76728805  0.76255463     0.05600
H296        H  0.74048670  0.69704759  0.75065213     0.05600
C297        C  0.69501638  0.72444060  0.21220547     0.03600
C298        C  0.71523763  0.70717366  0.21237274     0.03500
C299        C  0.72610751  0.70030649  0.24979027    -0.17000
C300        C  0.71742843  0.71059392  0.28679410     0.03600
C301        C  0.69757165  0.72826923  0.28604866     0.03500
C302        C  0.68657177  0.73478759  0.24893363    -0.17000
H303        H  0.67128752  0.74820650  0.24863088     0.05600
H304        H  0.74142172  0.68695926  0.25009014     0.05600
N305        N  0.24160833  0.80888442  0.58672831    -0.26000
N306        N  0.24037823  0.78759739  0.56608513    -0.33900
C307        C  0.23741068  0.76845360  0.59242745     0.02300
C308        C  0.23664938  0.77812917  0.63162265     0.08400
C309        C  0.23940610  0.80382846  0.62666255    -0.04700
H310        H  0.23505167  0.74907022  0.58336056     0.09000
H311        H  0.23902662  0.81792488  0.65030953     0.10200
Cu312      Cu  0.24051148  0.78559116  0.50257303     0.44200
Cu313      Cu  0.24447314  0.84402448  0.55938567     0.42000
Cu314      Cu  0.24453999  0.84450669  0.44871942     0.43900
N315        N  0.23840801  0.78846599  0.43924408    -0.33400
N316        N  0.23974223  0.81012518  0.41968259    -0.27700
C317        C  0.23655542  0.80597937  0.37969775    -0.03800
C318        C  0.23315458  0.78046994  0.37348143     0.08500
C319        C  0.23441392  0.76994253  0.41207752     0.02300
H320        H  0.23625851  0.82055941  0.35683833     0.09900
H321        H  0.23193034  0.75039710  0.42013726     0.09000
N322        N  0.24686057  0.87667312  0.48438512    -0.34900
N323        N  0.24640032  0.87655878  0.52449446    -0.27000
C324        C  0.24686506  0.90044236  0.53795315    -0.02300
C325        C  0.24775450  0.91644829  0.50474266     0.06300
C326        C  0.24780133  0.90061083  0.47131107     0.04400
H327        H  0.24651622  0.90567892  0.56964774     0.09500
H328        H  0.24777162  0.90601939  0.43968973     0.08400
N329        N  0.23711159  0.13285824  0.58564266    -0.26000
N330        N  0.23493451  0.15424849  0.56550993    -0.33900
C331        C  0.23105612  0.17300297  0.59232055     0.02300
C332        C  0.23088128  0.16287529  0.63119157     0.08400
C333        C  0.23482474  0.13743629  0.62562723    -0.04700
H334        H  0.22858153  0.19249881  0.58395291     0.09000
H335        H  0.23568926  0.12318842  0.64900311     0.10200
Cu336      Cu  0.23771096  0.15677939  0.50233173     0.44200
Cu337      Cu  0.24208428  0.09808643  0.55817589     0.42000
Cu338      Cu  0.24752513  0.09775129  0.44900048     0.43900
N339        N  0.24273879  0.15399306  0.43951940    -0.33400
N340        N  0.24650037  0.13246467  0.42036196    -0.27700
C341        C  0.24869290  0.13691229  0.38031164    -0.03800
C342        C  0.24622061  0.16244229  0.37367299     0.08500
C343        C  0.24244243  0.17271868  0.41200294     0.02300
H344        H  0.25138348  0.12250406  0.35753348     0.09900
H345        H  0.23922688  0.19224626  0.41948508     0.09000
N346        N  0.24696893  0.06533774  0.48398715    -0.34900
N347        N  0.24490273  0.06544491  0.52393684    -0.27000
C348        C  0.24458903  0.04157705  0.53738839    -0.02300
C349        C  0.24663404  0.02555241  0.50430149     0.06300
C350        C  0.24811447  0.04140823  0.47094241     0.04400
H351        H  0.24310829  0.03638974  0.56902700     0.09500
H352        H  0.24954505  0.03605775  0.43937135     0.08400
C353        C  0.22222052  0.71700599  0.78203676     0.03600
C354        C  0.20536689  0.69666263  0.77702354     0.03500
C355        C  0.19516664  0.69166067  0.73897234    -0.17000
C356        C  0.20122604  0.70643273  0.70516774     0.03600
C357        C  0.21923596  0.72587137  0.70887546     0.03500
C358        C  0.22918833  0.73130268  0.74755349    -0.17000
H359        H  0.24244374  0.74660193  0.75069265     0.05600
H360        H  0.18219307  0.67607394  0.73568982     0.05600
C361        C  0.20356970  0.70198843  0.22308405     0.03600
C362        C  0.22079654  0.72215464  0.21925138     0.03500
C363        C  0.22734777  0.73591896  0.25447240    -0.17000
C364        C  0.21675872  0.73000904  0.29271806     0.03600
C365        C  0.19842711  0.71077167  0.29525962     0.03500
C366        C  0.19260193  0.69669755  0.26063314    -0.17000
H367        H  0.17961991  0.68104979  0.26297795     0.05600
H368        H  0.24086194  0.75106985  0.25235485     0.05600
N369        N  0.81194027  0.24663341  0.58912516    -0.26000
N370        N  0.79043785  0.24774899  0.56924540    -0.33900
C371        C  0.77142159  0.24658468  0.59628106     0.02300
C372        C  0.78139563  0.24456623  0.63506558     0.08400
C373        C  0.80711943  0.24466910  0.62917083    -0.04700
H374        H  0.75182678  0.24617205  0.58796078     0.09000
H375        H  0.82133211  0.24259355  0.65225832     0.10200
Cu376      Cu  0.78750475  0.24843863  0.50577617     0.44200
Cu377      Cu  0.84710377  0.24604949  0.56126207     0.42000
Cu378      Cu  0.84632788  0.24612951  0.45175004     0.43900
N379        N  0.79006856  0.24636717  0.44231259    -0.33400
N380        N  0.81183369  0.24550764  0.42295697    -0.27700
C381        C  0.80772543  0.24299720  0.38292766    -0.03800
C382        C  0.78214811  0.24225359  0.37635004     0.08500
C383        C  0.77145835  0.24442326  0.41481309     0.02300
H384        H  0.82236459  0.24119237  0.36026991     0.09900
H385        H  0.75171239  0.24390302  0.42248226     0.09000
N386        N  0.87900309  0.24526469  0.48558723    -0.34900
N387        N  0.87947224  0.24520115  0.52564920    -0.27000
C388        C  0.90353467  0.24458541  0.53793532    -0.02300
C389        C  0.91903803  0.24422069  0.50390020     0.06300
C390        C  0.90265276  0.24465903  0.47130604     0.04400
H391        H  0.90920355  0.24432164  0.56938486     0.09500
H392        H  0.90741623  0.24481381  0.43939381     0.08400
N393        N  0.13335396  0.24348342  0.40589175    -0.26000
N394        N  0.15475056  0.24606014  0.42555675    -0.33900
C395        C  0.17388465  0.24501718  0.39896036     0.02300
C396        C  0.16419577  0.24162254  0.36034690     0.08400
C397        C  0.13838526  0.24070625  0.36597324    -0.04700
H398        H  0.19340539  0.24591064  0.40761975     0.09000
H399        H  0.12435410  0.23765899  0.34286985     0.10200
Cu400      Cu  0.15745285  0.24933393  0.48804515     0.44200
Cu401      Cu  0.09881924  0.24298757  0.43596854     0.42000
Cu402      Cu  0.10132737  0.24741451  0.54809919     0.43900
N403        N  0.15754689  0.25013394  0.55090461    -0.33400
N404        N  0.13702306  0.24879634  0.57345465    -0.27700
C405        C  0.14368134  0.24783416  0.61285928    -0.03800
C406        C  0.16968048  0.24882164  0.61496351     0.08500
C407        C  0.17773624  0.25035815  0.57517068     0.02300
H408        H  0.13059635  0.24617073  0.63789937     0.09900
H409        H  0.19697166  0.25057751  0.56451951     0.09000
N410        N  0.06844634  0.24554452  0.51427936    -0.34900
N411        N  0.06752930  0.24373557  0.47427064    -0.27000
C412        C  0.04334811  0.24278667  0.46276894    -0.02300
C413        C  0.02815827  0.24410433  0.49706815     0.06300
C414        C  0.04488764  0.24585222  0.52912501     0.04400
H415        H  0.03741031  0.24145912  0.43152615     0.09500
H416        H  0.04043021  0.24713924  0.56107871     0.08400
C417        C  0.69996038  0.21665971  0.78190337     0.03600
C418        C  0.71975309  0.23425397  0.78665689     0.03500
C419        C  0.73405582  0.24112739  0.75213763    -0.17000
C420        C  0.72910978  0.23063106  0.71363295     0.03600
C421        C  0.71020736  0.21203754  0.70979792     0.03500
C422        C  0.69547703  0.20588862  0.74383459    -0.17000
H423        H  0.68002293  0.19278400  0.74069789     0.05600
H424        H  0.74894259  0.25487646  0.75503411     0.05600
C425        C  0.72919414  0.23269516  0.21884475     0.03600
C426        C  0.71049865  0.21373463  0.21923697     0.03500
C427        C  0.70348301  0.20245044  0.25611367    -0.17000
C428        C  0.71468550  0.20954553  0.29291420     0.03600
C429        C  0.73301687  0.22885590  0.29294642     0.03500
C430        C  0.74014429  0.24014663  0.25587188    -0.17000
H431        H  0.75437859  0.25470828  0.25587492     0.05600
H432        H  0.68919298  0.18793566  0.25605956     0.05600
C433        C  0.20753270  0.23509324  0.79076958     0.03600
C434        C  0.22687328  0.21714368  0.78605209     0.03500
C435        C  0.23146930  0.20652787  0.74770274    -0.17000
C436        C  0.21654806  0.21270248  0.71393481     0.03600
C437        C  0.19690534  0.23050565  0.71885632     0.03500
C438        C  0.19263550  0.24137062  0.75714002    -0.17000
H439        H  0.17733263  0.25458860  0.76086326     0.05600
H440        H  0.24652905  0.19300880  0.74440036     0.05600
C441        C  0.24901671  0.21712827  0.21732868     0.03600
C442        C  0.22968717  0.23530235  0.21274337     0.03500
C443        C  0.21434974  0.24112771  0.24649054    -0.17000
C444        C  0.21846701  0.23008763  0.28461312     0.03600
C445        C  0.23775648  0.21206699  0.28911689     0.03500
C446        C  0.25279303  0.20584369  0.25538991    -0.17000
H447        H  0.26793155  0.19244551  0.25893327     0.05600
H448        H  0.19936290  0.25472069  0.24344570     0.05600
C449        C  0.18632633  0.24650586  0.65052579    -0.15200
C450        C  0.17888372  0.23632835  0.68585336    -0.30300
H451        H  0.20593632  0.25154740  0.64641796     0.13900
H452        H  0.15922925  0.23187551  0.69089292     0.14400
C453        C  0.17821887  0.23736836  0.32186467    -0.15200
C454        C  0.20344868  0.23821958  0.32042100    -0.30300
H455        H  0.16776840  0.23204989  0.29497544     0.13900
H456        H  0.21375766  0.24333541  0.34742879     0.14400
C457        C  0.96121581  0.24834190  0.53745013    -0.12100
C458        C  0.94696354  0.24383529  0.50239972     0.10100
C459        C  0.95969632  0.23918012  0.46570009    -0.12100
C460        C  0.98592646  0.23919148  0.46402587    -0.12100
C461        C  0.00021164  0.24386489  0.49900086     0.10100
C462        C  0.98747312  0.24837701  0.53577371    -0.12100
H463        H  0.95216691  0.25216888  0.56622781     0.14100
H464        H  0.94948563  0.23535219  0.43809722     0.14100
H465        H  0.99489804  0.23540849  0.43518648     0.14100
H466        H  0.99768168  0.25218615  0.56337626     0.14100
C467        C  0.74495774  0.23685450  0.33177799    -0.15200
C468        C  0.76997427  0.23787198  0.33647662    -0.30300
H469        H  0.73295723  0.24006217  0.35788904     0.13900
H470        H  0.78206222  0.23417186  0.31053818     0.14400
C471        C  0.76811791  0.24001713  0.67419108    -0.15200
C472        C  0.74294853  0.23957403  0.67696871    -0.30300
H473        H  0.77928430  0.23537249  0.70065434     0.13900
H474        H  0.73193236  0.24401307  0.65034723     0.14400
C475        C  0.24578034  0.17497000  0.33343649    -0.15200
C476        C  0.24207782  0.19982547  0.32924695    -0.30300
H477        H  0.24709181  0.16317667  0.30660617     0.13900
H478        H  0.24016581  0.21120003  0.35632346     0.14400
C479        C  0.22704042  0.17554910  0.67082920    -0.15200
C480        C  0.22127583  0.20007751  0.67409876    -0.30300
H481        H  0.22823492  0.16406606  0.69799602     0.13900
H482        H  0.21924409  0.21085134  0.64654305     0.14400
C483        C  0.23950827  0.95780561  0.53910260    -0.12100
C484        C  0.24769679  0.94436844  0.50480781     0.10100
C485        C  0.25558481  0.95786837  0.47038781    -0.12100
C486        C  0.25526421  0.98416193  0.47024126    -0.12100
C487        C  0.24701284  0.99761836  0.50449785     0.10100
C488        C  0.23913829  0.98410242  0.53893409    -0.12100
H489        H  0.23300392  0.94804494  0.56596212     0.14100
H490        H  0.26227698  0.94815909  0.44360632     0.14100
H491        H  0.26174632  0.99388189  0.44333977     0.14100
H492        H  0.23238436  0.99376912  0.56570532     0.14100
C493        C  0.23134849  0.76479674  0.67044098    -0.15200
C494        C  0.22786245  0.73976160  0.67198348    -0.30300
H495        H  0.22891658  0.77598640  0.69773384     0.13900
H496        H  0.23008246  0.72899916  0.64432238     0.14400
C497        C  0.22755205  0.76807204  0.33400510    -0.15200
C498        C  0.22533604  0.74298588  0.33041656    -0.30300
H499        H  0.22420553  0.77993278  0.30776248     0.13900
H500        H  0.22861963  0.73142304  0.35691886     0.14400
C501        C  0.16049849  0.69958642  0.33533310    -0.15200
C502        C  0.18515381  0.70507845  0.33397463    -0.30300
H503        H  0.14959106  0.69931046  0.30758172     0.13900
H504        H  0.19556305  0.70624614  0.36201037     0.14400
C505        C  0.16265622  0.69879741  0.66577757    -0.15200
C506        C  0.18771419  0.70188639  0.66653760    -0.30300
H507        H  0.15198171  0.69932535  0.69391996     0.13900
H508        H  0.19817355  0.70237759  0.63832408     0.14400
C509        C  0.94267690  0.68668394  0.46608571    -0.12100
C510        C  0.92900205  0.68326368  0.50223575     0.10100
C511        C  0.94228983  0.67937879  0.53847463    -0.12100
C512        C  0.96855006  0.67915433  0.53858921    -0.12100
C513        C  0.98219955  0.68277309  0.50246908     0.10100
C514        C  0.96891143  0.68643573  0.46620069    -0.12100
H515        H  0.93320375  0.68996189  0.43762731     0.14100
H516        H  0.93247237  0.67638684  0.56685624     0.14100
H517        H  0.97809746  0.67598514  0.56703551     0.14100
H518        H  0.97870838  0.68954160  0.43782902     0.14100
C519        C  0.75530617  0.71266875  0.67208934    -0.15200
C520        C  0.73114555  0.71908233  0.67747918    -0.30300
H521        H  0.76776955  0.71218047  0.69804878     0.13900
H522        H  0.71936136  0.72034415  0.65098167     0.14400
C523        C  0.75392805  0.70026839  0.33139167    -0.15200
C524        C  0.72909579  0.70331812  0.32631101    -0.30300
H525        H  0.76644339  0.70175914  0.30541223     0.13900
H526        H  0.71706177  0.70193620  0.35276349     0.14400
C527        C  0.70598031  0.19876769  0.67038251    -0.15200
C528        C  0.69962647  0.17428229  0.66818075    -0.30300
H529        H  0.70956872  0.20884068  0.64242693     0.13900
H530        H  0.69688154  0.16350925  0.69581861     0.14400
C531        C  0.70449435  0.17134814  0.33367598    -0.15200
C532        C  0.70769386  0.19640946  0.33130368    -0.30300
H533        H  0.70569666  0.15991961  0.30644838     0.13900
H534        H  0.70666099  0.20741823  0.35886742     0.14400
C535        C  0.67663410  0.95523086  0.46455241    -0.12100
C536        C  0.67477481  0.94138314  0.50075527     0.10100
C537        C  0.67332487  0.95458473  0.53767041    -0.12100
C538        C  0.67403971  0.98090678  0.53833626    -0.12100
C539        C  0.67625259  0.99472836  0.50210333     0.10100
C540        C  0.67735149  0.98147568  0.46521204    -0.12100
H541        H  0.67789644  0.94590688  0.43547080     0.14100
H542        H  0.67163871  0.94467001  0.56619233     0.14100
H543        H  0.67295728  0.99031392  0.56737388     0.14100
H544        H  0.67905546  0.99123075  0.43657629     0.14100
C545        C  0.68486351  0.76553484  0.32632727    -0.15200
C546        C  0.68847913  0.74056870  0.32385616    -0.30300
H547        H  0.68800389  0.77723937  0.29976195     0.13900
H548        H  0.68597195  0.72909737  0.35069894     0.14400
C549        C  0.68500859  0.75517683  0.65409779    -0.15200
C550        C  0.69686324  0.76307646  0.68761414    -0.30300
H551        H  0.67926965  0.73563067  0.65175364     0.13900
H552        H  0.70191856  0.78274445  0.69086617     0.14400
C553        C  0.21874464  0.27278533  0.17046580    -0.15200
C554        C  0.22570558  0.24851209  0.17320131    -0.30300
H555        H  0.21609942  0.28380217  0.19787616     0.13900
H556        H  0.22929302  0.23835763  0.14539701     0.14400
C557        C  0.19971408  0.27243225  0.83458249    -0.15200
C558        C  0.20332627  0.24752799  0.83081664    -0.30300
H559        H  0.19813094  0.28398817  0.80756464     0.13900
H560        H  0.20547475  0.23636471  0.85803381     0.14400
C561        C  0.18663738  0.49004321  0.04165696    -0.12100
C562        C  0.18380689  0.50336909  0.00510744     0.10100
C563        C  0.18162489  0.48960354  0.96885665    -0.12100
C564        C  0.18265826  0.46333729  0.96902855    -0.12100
C565        C  0.18592411  0.44999977  0.00545117     0.10100
C566        C  0.18767817  0.46373174  0.04182926    -0.12100
H567        H  0.18838262  0.49984352  0.07024482     0.14100
H568        H  0.17915076  0.49899892  0.94008571     0.14100
H569        H  0.18097498  0.45361006  0.94037482     0.14100
H570        H  0.19017140  0.45428730  0.07055848     0.14100
C571        C  0.18452215  0.69084180  0.15742550    -0.15200
C572        C  0.19830120  0.68423840  0.18960161    -0.30300
H573        H  0.17743348  0.70993563  0.15520988     0.13900
H574        H  0.20504021  0.66510464  0.19276924     0.14400
C575        C  0.18448066  0.68624448  0.84142258    -0.15200
C576        C  0.19901286  0.67910755  0.81026572    -0.30300
H577        H  0.17751932  0.70542997  0.84256422     0.13900
H578        H  0.20574572  0.65991189  0.80801694     0.14400
C579        C  0.69797933  0.20581016  0.18106409    -0.15200
C580        C  0.67286343  0.20515711  0.17738148    -0.30300
H581        H  0.70963652  0.20221083  0.15473661     0.13900
H582        H  0.66112723  0.20941944  0.20349911     0.14400
C583        C  0.68171270  0.21108605  0.81481022    -0.15200
C584        C  0.68838671  0.19923280  0.84900066    -0.30300
H585        H  0.66238952  0.21684180  0.81033590     0.13900
H586        H  0.70767374  0.19307434  0.85267690     0.14400
C587        C  0.45875250  0.20758435  0.02871940    -0.12100
C588        C  0.44607286  0.20307142  0.99211627     0.10100
C589        C  0.46044851  0.19877593  0.95685933    -0.12100
C590        C  0.48674408  0.19868386  0.95836091    -0.12100
C591        C  0.49938661  0.20290358  0.99513462     0.10100
C592        C  0.48498263  0.20749646  0.03021236    -0.12100
H593        H  0.44849527  0.21129606  0.05644964     0.14100
H594        H  0.45148058  0.19513558  0.92809221     0.14100
H595        H  0.49707341  0.19499124  0.93067715     0.14100
H596        H  0.49386838  0.21115037  0.05904190     0.14100
C597        C  0.25993522  0.20062368  0.14915128    -0.15200
C598        C  0.26719956  0.21119080  0.18423376    -0.30300
H599        H  0.24028833  0.19574050  0.14522859     0.13900
H600        H  0.28686790  0.21540351  0.18932029     0.14400
C601        C  0.26683200  0.20930255  0.82276304    -0.15200
C602        C  0.24162402  0.20873452  0.82169321    -0.30300
H603        H  0.27730410  0.21507236  0.79599599     0.13900
H604        H  0.23121007  0.20336232  0.84861787     0.14400
C605        C  0.73117026  0.67215092  0.16859568    -0.15200
C606        C  0.72470949  0.69639467  0.17333348    -0.30300
H607        H  0.73087951  0.65960681  0.19460243     0.13900
H608        H  0.72479418  0.70840331  0.14682157     0.14400
C609        C  0.72754059  0.67931698  0.83069072    -0.15200
C610        C  0.72502393  0.70446111  0.82884532    -0.30300
H611        H  0.72494784  0.66815306  0.80342795     0.13900
H612        H  0.72744031  0.71523544  0.85644174     0.14400
C613        C  0.75160759  0.45975905  0.03429472    -0.12100
C614        C  0.74873077  0.44559003  0.99864203     0.10100
C615        C  0.74626720  0.45849095  0.96158194    -0.12100
C616        C  0.74668534  0.48480402  0.96028246    -0.12100
C617        C  0.74955011  0.49896114  0.99599369     0.10100
C618        C  0.75204334  0.48602366  0.03300042    -0.12100
H619        H  0.75368767  0.45066796  0.06342213     0.14100
H620        H  0.74389878  0.44837956  0.93341292     0.14100
H621        H  0.74467347  0.49393790  0.93117752     0.14100
H622        H  0.75434199  0.49604244  0.06124916     0.14100
C623        C  0.73690945  0.24460438  0.17955179    -0.15200
C624        C  0.73992410  0.26954479  0.17467332    -0.30300
H625        H  0.73819310  0.23269364  0.15300307     0.13900
H626        H  0.73834920  0.28186261  0.20082504     0.14400
C627        C  0.73146736  0.26971458  0.83289964    -0.15200
C628        C  0.72518436  0.24548043  0.82741587    -0.30300
H629        H  0.73295256  0.28204682  0.80676102     0.13900
H630        H  0.72288439  0.23385588  0.85405182     0.14400
C631        C  0.23161952  0.72842411  0.17848980    -0.15200
C632        C  0.25507157  0.73697417  0.17247911    -0.30300
H633        H  0.22031801  0.72458693  0.15202312     0.13900
H634        H  0.26726203  0.74011738  0.19829898     0.14400
C635        C  0.23241598  0.72299452  0.82313083    -0.15200
C636        C  0.25602106  0.73085650  0.82931236    -0.30300
H637        H  0.22068403  0.71949390  0.84941712     0.13900
H638        H  0.26855462  0.73334093  0.80355304     0.14400
C639        C  0.46826971  0.75274328  0.96379610    -0.12100
C640        C  0.48150327  0.75619805  0.00016687     0.10100
C641        C  0.46784031  0.76033929  0.03610415    -0.12100
C642        C  0.44162676  0.76068996  0.03579819    -0.12100
C643        C  0.42834932  0.75685987  0.99954835     0.10100
C644        C  0.44204203  0.75305397  0.96349294    -0.12100
H645        H  0.47807813  0.74937161  0.93552943     0.14100
H646        H  0.47731964  0.76340304  0.06462929     0.14100
H647        H  0.43188823  0.76392588  0.06415782     0.14100
H648        H  0.43262678  0.74999537  0.93492117     0.14100
C649        C  0.65727363  0.73271272  0.17034233    -0.15200
C650        C  0.68239180  0.73175671  0.17377459    -0.30300
H651        H  0.64551031  0.72854292  0.19649678     0.13900
H652        H  0.69393576  0.73568022  0.14741729     0.14400
C653        C  0.66151317  0.74635550  0.83657041    -0.15200
C654        C  0.68654232  0.74373055  0.83387956    -0.30300
H655        H  0.65021209  0.74529134  0.80925202     0.13900
H656        H  0.69766411  0.74414988  0.86129968     0.14400
loop_ 
_geom_bond_atom_site_label_1 
_geom_bond_atom_site_label_2 
_geom_bond_distance 
_geom_bond_site_symmetry_2 
_ccdc_geom_bond_type 
N1            N2   1.322       .  A
N1            C5   1.345       .  A
N1           Cu9   2.073       .  S
N2            C3   1.346       .  A
N2           Cu8   2.076   1_556  S
C3            C4   1.387       .  A
C3            H6   1.081       .  S
C4            C5   1.382       .  A
C4          C653   1.478       .  S
C5            H7   1.082       .  S
Cu8          N11   2.075       .  S
Cu9          N19   2.073       .  S
Cu10         N12   2.075       .  S
Cu10         N18   2.074       .  S
N11          N12   1.322       .  A
N11          C15   1.345       .  A
N12          C13   1.346       .  A
C13          C14   1.383       .  A
C13          H16   1.082       .  S
C14          C15   1.387       .  A
C14         C649   1.479       .  S
C15          H17   1.081       .  S
N18          N19   1.321   1_554  A
N18          C22   1.344       .  A
N19          C20   1.345       .  A
C20          C21   1.388   1_556  A
C20          H23   1.081       .  S
C21          C22   1.388       .  A
C21         C640   1.485       .  S
C22          H24   1.081       .  S
N25          N26   1.324       .  A
N25          C29   1.344       .  A
N25         Cu33   2.069       .  S
N26          C27   1.351       .  A
N26         Cu32   2.112       .  S
C27          C28   1.394       .  A
C27          H30   1.081       .  S
C28          C29   1.379       .  A
C28         C632   1.487       .  S
C29          H31   1.082       .  S
Cu32         N35   2.112   1_554  S
Cu33         N43   2.068       .  S
Cu34         N36   2.061       .  S
Cu34         N42   2.061       .  S
N35          N36   1.324       .  A
N35          C39   1.352       .  A
N36          C37   1.342       .  A
C37          C38   1.377       .  A
C37          H40   1.082       .  S
C38          C39   1.395       .  A
C38         C636   1.484       .  S
C39          H41   1.081       .  S
N42          N43   1.318   1_556  A
N42          C46   1.343       .  A
N43          C44   1.343       .  A
C44          C45   1.390   1_554  A
C44          H47   1.081       .  S
C45          C46   1.389       .  A
C45         C643   1.487       .  S
C46          H48   1.081       .  S
N49          N50   1.323       .  A
N49          C53   1.344       .  A
N49         Cu57   2.068       .  S
N50          C51   1.353       .  A
N50         Cu56   2.111   1_556  S
C51          C52   1.395       .  A
C51          H54   1.082       .  S
C52          C53   1.379       .  A
C52         C627   1.488       .  S
C53          H55   1.082       .  S
Cu56         N59   2.111       .  S
Cu57         N67   2.067       .  S
Cu58         N60   2.084       .  S
Cu58         N66   2.083       .  S
N59          N60   1.325       .  A
N59          C63   1.351       .  A
N60          C61   1.347       .  A
C61          C62   1.383       .  A
C61          H64   1.082       .  S
C62          C63   1.393       .  A
C62         C624   1.491       .  S
C63          H65   1.081       .  S
N66          N67   1.319   1_554  A
N66          C70   1.346       .  A
N67          C68   1.344       .  A
C68          C69   1.388   1_556  A
C68          H71   1.081       .  S
C69          C70   1.392       .  A
C69         C614   1.490   1_554  S
C70          H72   1.081       .  S
N73          N74   1.324       .  A
N73          C77   1.348       .  A
N73         Cu81   2.088       .  S
N74          C75   1.349       .  A
N74         Cu80   2.097       .  S
C75          C76   1.391       .  A
C75          H78   1.081       .  S
C76          C77   1.385       .  A
C76         C609   1.490       .  S
C77          H79   1.082       .  S
Cu80         N83   2.097   1_556  S
Cu81         N91   2.088       .  S
Cu82         N84   2.069       .  S
Cu82         N90   2.069       .  S
N83          N84   1.322       .  A
N83          C87   1.348       .  A
N84          C85   1.346       .  A
C85          C86   1.382       .  A
C85          H88   1.082       .  S
C86          C87   1.392       .  A
C86         C605   1.486       .  S
C87          H89   1.081       .  S
N90          N91   1.321   1_554  A
N90          C94   1.343       .  A
N91          C92   1.348       .  A
C92          C93   1.392       .  A
C92          H95   1.081       .  S
C93          C94   1.387   1_556  A
C93         C617   1.491       .  S
C94          H96   1.080       .  S
N97          N98   1.322       .  A
N97         C101   1.351       .  A
N97        Cu105   2.093       .  S
N98          C99   1.344       .  A
N98        Cu104   2.074   1_554  S
C99         C100   1.381       .  A
C99         H102   1.082       .  S
C100        C101   1.391       .  A
C100        C597   1.483       .  S
C101        H103   1.081       .  S
Cu104       N107   2.074       .  S
Cu105       N115   2.093       .  S
Cu106       N108   2.082       .  S
Cu106       N114   2.083       .  S
N107        N108   1.321       .  A
N107        C111   1.344       .  A
N108        C109   1.348       .  A
C109        C110   1.385       .  A
C109        H112   1.082       .  S
C110        C111   1.387       .  A
C110        C601   1.484       .  S
C111        H113   1.081       .  S
N114        N115   1.323   1_556  A
N114        C118   1.347       .  A
N115        C116   1.346       .  A
C116        C117   1.390   1_554  A
C116        H119   1.081       .  S
C117        C118   1.389       .  A
C117        C588   1.492       .  S
C118        H120   1.081       .  S
N121        N122   1.321       .  A
N121        C125   1.347       .  A
N121       Cu129   2.081       .  S
N122        C123   1.345       .  A
N122       Cu128   2.071       .  S
C123        C124   1.387       .  A
C123        H126   1.081       .  S
C124        C125   1.385       .  A
C124        C580   1.482       .  S
C125        H127   1.082       .  S
Cu128       N131   2.070   1_554  S
Cu129       N139   2.082       .  S
Cu130       N132   2.086       .  S
Cu130       N138   2.086       .  S
N131        N132   1.322       .  A
N131        C135   1.344       .  A
N132        C133   1.348       .  A
C133        C134   1.388       .  A
C133        H136   1.081       .  S
C134        C135   1.380       .  A
C134        C584   1.477       .  S
C135        H137   1.082       .  S
N138        N139   1.322   1_556  A
N138        C142   1.347       .  A
N139        C140   1.345       .  A
C140        C141   1.389   1_554  A
C140        H143   1.081       .  S
C141        C142   1.390       .  A
C141        C591   1.492       .  S
C142        H144   1.081       .  S
N145        N146   1.322       .  A
N145        C149   1.346       .  A
N145       Cu153   2.083       .  S
N146        C147   1.343       .  A
N146       Cu152   2.059       .  S
C147        C148   1.379       .  A
C147        H150   1.082       .  S
C148        C149   1.389       .  A
C148        C571   1.476       .  S
C149        H151   1.081       .  S
Cu152       N155   2.059   1_554  S
Cu153       N163   2.084       .  S
Cu154       N156   2.078       .  S
Cu154       N162   2.078       .  S
N155        N156   1.321       .  A
N155        C159   1.342       .  A
N156        C157   1.346       .  A
C157        C158   1.388       .  A
C157        H160   1.081       .  S
C158        C159   1.378       .  A
C158        C575   1.473       .  S
C159        H161   1.082       .  S
N162        N163   1.322   1_556  A
N162        C166   1.345       .  A
N163        C164   1.347       .  A
C164        C165   1.390       .  A
C164        H167   1.081       .  S
C165        C166   1.389   1_554  A
C165        C562   1.491       .  S
C166        H168   1.080       .  S
N169        N170   1.323       .  A
N169        C173   1.346       .  A
N169       Cu177   2.082       .  S
N170        C171   1.347       .  A
N170       Cu176   2.087       .  S
C171        C172   1.389       .  A
C171        H174   1.082       .  S
C172        C173   1.384       .  A
C172        C553   1.485       .  S
C173        H175   1.082       .  S
Cu176       N179   2.087   1_554  S
Cu177       N187   2.081       .  S
Cu178       N180   2.078       .  S
Cu178       N186   2.078       .  S
N179        N180   1.322       .  A
N179        C183   1.347       .  A
N180        C181   1.346       .  A
C181        C182   1.383       .  A
C181        H184   1.082       .  S
C182        C183   1.389       .  A
C182        C557   1.484       .  S
C183        H185   1.081       .  S
N186        N187   1.321   1_556  A
N186        C190   1.345       .  A
N187        C188   1.346       .  A
C188        C189   1.390       .  A
C188        H191   1.081       .  S
C189        C190   1.390   1_554  A
C189        C565   1.491       .  S
C190        H192   1.080       .  S
N193        N194   1.321       .  A
N193        C197   1.346       .  A
N193       Cu201   2.073       .  S
N194        C195   1.344       .  A
N194       Cu200   2.070       .  S
C195        C196   1.386       .  A
C195        H198   1.081       .  S
C196        C197   1.383       .  A
C196        C545   1.478       .  S
C197        H199   1.082       .  S
Cu200       N203   2.071       .  S
Cu201       N211   2.074       .  S
Cu202       N204   2.084       .  S
Cu202       N210   2.084       .  S
N203        N204   1.322       .  A
N203        C207   1.344       .  A
N204        C205   1.348       .  A
C205        C206   1.388       .  A
C205        H208   1.081       .  S
C206        C207   1.381       .  A
C206        C549   1.478       .  S
C207        H209   1.082       .  S
N210        N211   1.322       .  A
N210        C214   1.346       .  A
N211        C212   1.343       .  A
C212        C213   1.388       .  A
C212        H215   1.081       .  S
C213        C214   1.390       .  A
C213        C536   1.489       .  S
C214        H216   1.081       .  S
N217        N218   1.321       .  A
N217        C221   1.347       .  A
N217       Cu225   2.077       .  S
N218        C219   1.344       .  A
N218       Cu224   2.074       .  S
C219        C220   1.387       .  A
C219        H222   1.081       .  S
C220        C221   1.384       .  A
C220        C531   1.482       .  S
C221        H223   1.082       .  S
Cu224       N227   2.074       .  S
Cu225       N235   2.077       .  S
Cu226       N228   2.084       .  S
Cu226       N234   2.084       .  S
N227        N228   1.322       .  A
N227        C231   1.346       .  A
N228        C229   1.346       .  A
C229        C230   1.384       .  A
C229        H232   1.082       .  S
C230        C231   1.387       .  A
C230        C528   1.482       .  S
C231        H233   1.081       .  S
N234        N235   1.322       .  A
N234        C238   1.347       .  A
N235        C236   1.343       .  A
C236        C237   1.388       .  A
C236        H239   1.081       .  S
C237        C238   1.391       .  A
C237        C539   1.490   1_545  S
C238        H240   1.081       .  S
N241        N242   1.324       .  A
N241        C245   1.344       .  A
N241       Cu249   2.071       .  S
N242        C243   1.351       .  A
N242       Cu248   2.106       .  S
C243        C244   1.394       .  A
C243        H246   1.082       .  S
C244        C245   1.379       .  A
C244        C519   1.486       .  S
C245        H247   1.082       .  S
Cu248       N251   2.106       .  S
Cu249       N259   2.070       .  S
Cu250       N252   2.076       .  S
Cu250       N258   2.075       .  S
N251        N252   1.324       .  A
N251        C255   1.350       .  A
N252        C253   1.345       .  A
C253        C254   1.381       .  A
C253        H256   1.082       .  S
C254        C255   1.393       .  A
C254        C523   1.487       .  S
C255        H257   1.082       .  S
N258        N259   1.320       .  A
N258        C262   1.345       .  A
N259        C260   1.345       .  A
C260        C261   1.388       .  A
C260        H263   1.081       .  S
C261        C262   1.389       .  A
C261        C510   1.488       .  S
C262        H264   1.081       .  S
N265        N266   1.320       .  A
N265        C269   1.346       .  A
N265       Cu273   2.076       .  S
N266        C267   1.341       .  A
N266       Cu272   2.055       .  S
C267        C268   1.383       .  A
C267        H270   1.081       .  S
C268        C269   1.384       .  A
C268        C501   1.476       .  S
C269        H271   1.082       .  S
Cu272       N275   2.055       .  S
Cu273       N283   2.076       .  S
Cu274       N276   2.080       .  S
Cu274       N282   2.081       .  S
N275        N276   1.321       .  A
N275        C279   1.342       .  A
N276        C277   1.346       .  A
C277        C278   1.384       .  A
C277        H280   1.082       .  S
C278        C279   1.383       .  A
C278        C505   1.475       .  S
C279        H281   1.081       .  S
N282        N283   1.323       .  A
N282        C286   1.345       .  A
N283        C284   1.344       .  A
C284        C285   1.387       .  A
C284        H287   1.082       .  S
C285        C286   1.388       .  A
C285        C513   1.486   1_455  S
C286        H288   1.082       .  S
C289        C290   1.416       .  A
C289        C294   1.404       .  A
C289        C654   1.488       .  S
C290        C291   1.412       .  A
C290        C610   1.496       .  S
C291        C292   1.415       .  A
C291        H296   1.083       .  S
C292        C293   1.419       .  A
C292        C520   1.497       .  S
C293        C294   1.400       .  A
C293        C550   1.486       .  S
C294        H295   1.084       .  S
C297        C298   1.417       .  A
C297        C302   1.402       .  A
C297        C650   1.489       .  S
C298        C299   1.413       .  A
C298        C606   1.495       .  S
C299        C300   1.413       .  A
C299        H304   1.082       .  S
C300        C301   1.417       .  A
C300        C524   1.497       .  S
C301        C302   1.403       .  A
C301        C546   1.487       .  S
C302        H303   1.084       .  S
N305        N306   1.323       .  A
N305        C309   1.348       .  A
N305       Cu313   2.081       .  S
N306        C307   1.347       .  A
N306       Cu312   2.096       .  S
C307        C308   1.391       .  A
C307        H310   1.081       .  S
C308        C309   1.385       .  A
C308        C493   1.489       .  S
C309        H311   1.082       .  S
Cu312       N315   2.097       .  S
Cu313       N323   2.080       .  S
Cu314       N316   2.080       .  S
Cu314       N322   2.080       .  S
N315        N316   1.322       .  A
N315        C319   1.349       .  A
N316        C317   1.348       .  A
C317        C318   1.384       .  A
C317        H320   1.082       .  S
C318        C319   1.392       .  A
C318        C497   1.490       .  S
C319        H321   1.081       .  S
N322        N323   1.322       .  A
N322        C326   1.345       .  A
N323        C324   1.346       .  A
C324        C325   1.388       .  A
C324        H327   1.081       .  S
C325        C326   1.387       .  A
C325        C484   1.485       .  S
C326        H328   1.081       .  S
N329        N330   1.323       .  A
N329        C333   1.345       .  A
N329       Cu337   2.076       .  S
N330        C331   1.348       .  A
N330       Cu336   2.091       .  S
C331        C332   1.390       .  A
C331        H334   1.082       .  S
C332        C333   1.382       .  A
C332        C479   1.484       .  S
C333        H335   1.082       .  S
Cu336       N339   2.092       .  S
Cu337       N347   2.076       .  S
Cu338       N340   2.075       .  S
Cu338       N346   2.075       .  S
N339        N340   1.323       .  A
N339        C343   1.348       .  A
N340        C341   1.346       .  A
C341        C342   1.382       .  A
C341        H344   1.082       .  S
C342        C343   1.390       .  A
C342        C475   1.485       .  S
C343        H345   1.081       .  S
N346        N347   1.321       .  A
N346        C350   1.345       .  A
N347        C348   1.345       .  A
C348        C349   1.388       .  A
C348        H351   1.081       .  S
C349        C350   1.388       .  A
C349        C487   1.486   1_545  S
C350        H352   1.081       .  S
C353        C354   1.416       .  A
C353        C358   1.416       .  A
C353        C635   1.496       .  S
C354        C355   1.395       .  A
C354        C576   1.478       .  S
C355        C356   1.400       .  A
C355        H360   1.085       .  S
C356        C357   1.416       .  A
C356        C506   1.485       .  S
C357        C358   1.413       .  A
C357        C494   1.494       .  S
C358        H359   1.082       .  S
C361        C362   1.417       .  A
C361        C366   1.395       .  A
C361        C572   1.480       .  S
C362        C363   1.417       .  A
C362        C631   1.497       .  S
C363        C364   1.414       .  A
C363        H368   1.082       .  S
C364        C365   1.416       .  A
C364        C498   1.494       .  S
C365        C366   1.401       .  A
C365        C502   1.487       .  S
C366        H367   1.084       .  S
N369        N370   1.324       .  A
N369        C373   1.348       .  A
N369       Cu377   2.084       .  S
N370        C371   1.348       .  A
N370       Cu376   2.099       .  S
C371        C372   1.391       .  A
C371        H374   1.081       .  S
C372        C373   1.384       .  A
C372        C471   1.488       .  S
C373        H375   1.082       .  S
Cu376       N379   2.099       .  S
Cu377       N387   2.083       .  S
Cu378       N380   2.073       .  S
Cu378       N386   2.072       .  S
N379        N380   1.322       .  A
N379        C383   1.350       .  A
N380        C381   1.345       .  A
C381        C382   1.382       .  A
C381        H384   1.082       .  S
C382        C383   1.392       .  A
C382        C468   1.486       .  S
C383        H385   1.081       .  S
N386        N387   1.321       .  A
N386        C390   1.344       .  A
N387        C388   1.347       .  A
C388        C389   1.391       .  A
C388        H391   1.081       .  S
C389        C390   1.388       .  A
C389        C458   1.489       .  S
C390        H392   1.081       .  S
N393        N394   1.321       .  A
N393        C397   1.350       .  A
N393       Cu401   2.087       .  S
N394        C395   1.343       .  A
N394       Cu400   2.073       .  S
C395        C396   1.387       .  A
C395        H398   1.081       .  S
C396        C397   1.388       .  A
C396        C453   1.487       .  S
C397        H399   1.082       .  S
Cu400       N403   2.072       .  S
Cu401       N411   2.088       .  S
Cu402       N404   2.082       .  S
Cu402       N410   2.083       .  S
N403        N404   1.322       .  A
N403        C407   1.343       .  A
N404        C405   1.349       .  A
C405        C406   1.388       .  A
C405        H408   1.082       .  S
C406        C407   1.381       .  A
C406        C449   1.478       .  S
C407        H409   1.082       .  S
N410        N411   1.323       .  A
N410        C414   1.346       .  A
N411        C412   1.346       .  A
C412        C413   1.389       .  A
C412        H415   1.081       .  S
C413        C414   1.388       .  A
C413        C461   1.490       .  S
C414        H416   1.081       .  S
C417        C418   1.419       .  A
C417        C422   1.401       .  A
C417        C583   1.483       .  S
C418        C419   1.415       .  A
C418        C628   1.499       .  S
C419        C420   1.412       .  A
C419        H424   1.083       .  S
C420        C421   1.417       .  A
C420        C472   1.491       .  S
C421        C422   1.405       .  A
C421        C527   1.496       .  S
C422        H423   1.084       .  S
C425        C426   1.417       .  A
C425        C430   1.412       .  A
C425        C623   1.498       .  S
C426        C427   1.405       .  A
C426        C579   1.487       .  S
C427        C428   1.406       .  A
C427        H432   1.084       .  S
C428        C429   1.417       .  A
C428        C532   1.491       .  S
C429        C430   1.412       .  A
C429        C467   1.493       .  S
C430        H431   1.084       .  S
C433        C434   1.414       .  A
C433        C438   1.407       .  A
C433        C558   1.493       .  S
C434        C435   1.405       .  A
C434        C602   1.486       .  S
C435        C436   1.410       .  A
C435        H440   1.083       .  S
C436        C437   1.421       .  A
C436        C480   1.495       .  S
C437        C438   1.406       .  A
C437        C450   1.487       .  S
C438        H439   1.084       .  S
C441        C442   1.422       .  A
C441        C446   1.406       .  A
C441        C598   1.490       .  S
C442        C443   1.412       .  A
C442        C554   1.497       .  S
C443        C444   1.405       .  A
C443        H448   1.083       .  S
C444        C445   1.415       .  A
C444        C454   1.488       .  S
C445        C446   1.407       .  A
C445        C476   1.493       .  S
C446        H447   1.084       .  S
C449        C450   1.342       .  D
C449        H451   1.087       .  S
C450        H452   1.086       .  S
C453        C454   1.346       .  D
C453        H455   1.086       .  S
C454        H456   1.083       .  S
C457        C458   1.406       .  A
C457        C462   1.400       .  A
C457        H463   1.082       .  S
C458        C459   1.406       .  A
C459        C460   1.399       .  A
C459        H464   1.081       .  S
C460        C461   1.406   1_655  A
C460        H465   1.081       .  S
C461        C462   1.407   1_455  A
C462        H466   1.081       .  S
C467        C468   1.344       .  D
C467        H469   1.084       .  S
C468        H470   1.086       .  S
C471        C472   1.344       .  D
C471        H473   1.087       .  S
C472        H474   1.084       .  S
C475        C476   1.344       .  D
C475        H477   1.086       .  S
C476        H478   1.083       .  S
C479        C480   1.345       .  D
C479        H481   1.086       .  S
C480        H482   1.080       .  S
C483        C484   1.405       .  A
C483        C488   1.399       .  A
C483        H489   1.082       .  S
C484        C485   1.405       .  A
C485        C486   1.399       .  A
C485        H490   1.082       .  S
C486        C487   1.406       .  A
C486        H491   1.082       .  S
C487        C488   1.406       .  A
C488        H492   1.082       .  S
C493        C494   1.345       .  D
C493        H495   1.086       .  S
C494        H496   1.083       .  S
C497        C498   1.345       .  D
C497        H499   1.086       .  S
C498        H500   1.083       .  S
C501        C502   1.346       .  D
C501        H503   1.086       .  S
C502        H504   1.082       .  S
C505        C506   1.346       .  D
C505        H507   1.086       .  S
C506        H508   1.082       .  S
C509        C510   1.406       .  A
C509        C514   1.398       .  A
C509        H515   1.081       .  S
C510        C511   1.407       .  A
C511        C512   1.400       .  A
C511        H516   1.082       .  S
C512        C513   1.406       .  A
C512        H517   1.082       .  S
C513        C514   1.406       .  A
C514        H518   1.082       .  S
C519        C520   1.343       .  D
C519        H521   1.086       .  S
C520        H522   1.080       .  S
C523        C524   1.345       .  D
C523        H525   1.086       .  S
C524        H526   1.083       .  S
C527        C528   1.348       .  D
C527        H529   1.082       .  S
C528        H530   1.086       .  S
C531        C532   1.346       .  D
C531        H533   1.086       .  S
C532        H534   1.082       .  S
C535        C536   1.406       .  A
C535        C540   1.397       .  A
C535        H541   1.081       .  S
C536        C537   1.407       .  A
C537        C538   1.401       .  A
C537        H542   1.081       .  S
C538        C539   1.407       .  A
C538        H543   1.081       .  S
C539        C540   1.406       .  A
C540        H544   1.081       .  S
C545        C546   1.345       .  D
C545        H547   1.087       .  S
C546        H548   1.083       .  S
C549        C550   1.342       .  D
C549        H551   1.086       .  S
C550        H552   1.086       .  S
C553        C554   1.347       .  D
C553        H555   1.086       .  S
C554        H556   1.080       .  S
C557        C558   1.345       .  D
C557        H559   1.086       .  S
C558        H560   1.083       .  S
C561        C562   1.407       .  A
C561        C566   1.401       .  A
C561        H567   1.081       .  S
C562        C563   1.406   1_554  A
C563        C564   1.399       .  A
C563        H568   1.081       .  S
C564        C565   1.406   1_556  A
C564        H569   1.081       .  S
C565        C566   1.407       .  A
C566        H570   1.081       .  S
C571        C572   1.340       .  D
C571        H573   1.087       .  S
C572        H574   1.085       .  S
C575        C576   1.339       .  D
C575        H577   1.087       .  S
C576        H578   1.085       .  S
C579        C580   1.345       .  D
C579        H581   1.082       .  S
C580        H582   1.086       .  S
C583        C584   1.341       .  D
C583        H585   1.085       .  S
C584        H586   1.086       .  S
C587        C588   1.406   1_554  A
C587        C592   1.399       .  A
C587        H593   1.081       .  S
C588        C589   1.408       .  A
C589        C590   1.402       .  A
C589        H594   1.081       .  S
C590        C591   1.407       .  A
C590        H595   1.082       .  S
C591        C592   1.407   1_556  A
C592        H596   1.081       .  S
C597        C598   1.344       .  D
C597        H599   1.087       .  S
C598        H600   1.085       .  S
C601        C602   1.344       .  D
C601        H603   1.086       .  S
C602        H604   1.083       .  S
C605        C606   1.344       .  D
C605        H607   1.087       .  S
C606        H608   1.083       .  S
C609        C610   1.346       .  D
C609        H611   1.086       .  S
C610        H612   1.083       .  S
C613        C614   1.405   1_554  A
C613        C618   1.398       .  A
C613        H619   1.081       .  S
C614        C615   1.408       .  A
C615        C616   1.401       .  A
C615        H620   1.081       .  S
C616        C617   1.406       .  A
C616        H621   1.081       .  S
C617        C618   1.408   1_556  A
C618        H622   1.080       .  S
C623        C624   1.346       .  D
C623        H625   1.082       .  S
C624        H626   1.086       .  S
C627        C628   1.344       .  D
C627        H629   1.086       .  S
C628        H630   1.080       .  S
C631        C632   1.343       .  D
C631        H633   1.081       .  S
C632        H634   1.086       .  S
C635        C636   1.342       .  D
C635        H637   1.082       .  S
C636        H638   1.086       .  S
C639        C640   1.405   1_556  A
C639        C644   1.398       .  A
C639        H645   1.081       .  S
C640        C641   1.405       .  A
C641        C642   1.397       .  A
C641        H646   1.081       .  S
C642        C643   1.406   1_554  A
C642        H647   1.081       .  S
C643        C644   1.407       .  A
C644        H648   1.081       .  S
C649        C650   1.345       .  D
C649        H651   1.087       .  S
C650        H652   1.083       .  S
C653        C654   1.344       .  D
C653        H655   1.087       .  S
C654        H656   1.083       .  S
