geometry optimzed in LAMMPS
_audit_creation_date              2020-12-01 
_audit_creation_method            'lammps2cif' 
_symmetry_space_group_name_H-M    'P1' 
_symmetry_Int_Tables_number       1 
_symmetry_cell_setting            triclinic 
loop_ 
_symmetry_equiv_pos_as_xyz 
  x,y,z 
_cell_length_a                    43.08340197 
_cell_length_b                    43.06558954566208 
_cell_length_c                    90.34378523690214 
_cell_angle_alpha                 90.02959274096571 
_cell_angle_beta                  89.96904128590357 
_cell_angle_gamma                 119.38842591295897 
loop_ 
_atom_site_label 
_atom_site_type_symbol 
_atom_site_fract_x 
_atom_site_fract_y 
_atom_site_fract_z 
_atom_site_charge 
N1          N  0.32033687  0.58013350  0.68251867    -0.27000
N2          N  0.32191122  0.61144623  0.68135182    -0.34900
C3          C  0.29570739  0.61110680  0.68955591     0.01300
C4          C  0.27640307  0.57788624  0.69623904     0.07300
C5          C  0.29301667  0.55901988  0.69143058    -0.05800
H6          H  0.29094961  0.63346615  0.69040159     0.08000
H7          H  0.28541614  0.53160100  0.69375400     0.09200
Cu8        Cu  0.35824265  0.65264733  0.66796333     0.44200
Cu9        Cu  0.35549782  0.56739253  0.67205294     0.42000
Cu10       Cu  0.42584793  0.63812683  0.65084766     0.43900
N11         N  0.39543132  0.68775627  0.65287202    -0.34400
N12         N  0.42004779  0.68229820  0.64660192    -0.28700
C13         C  0.43874671  0.70871053  0.63692124    -0.04800
C14         C  0.42540771  0.73222196  0.63707089     0.07400
C15         C  0.39787129  0.71787658  0.64734486     0.01200
H16         H  0.45958801  0.70973158  0.62992958     0.08900
H17         H  0.38057879  0.72834538  0.65051571     0.08000
N18         N  0.42479744  0.59075905  0.65606647    -0.35900
N19         N  0.39827670  0.56418376  0.66321085    -0.28000
C20         C  0.40608818  0.53778637  0.66511193    -0.03300
C21         C  0.43934327  0.54856014  0.65907772     0.05300
C22         C  0.45042790  0.58223991  0.65344095     0.03400
H23         H  0.38975624  0.51349303  0.67120787     0.08500
H24         H  0.47560528  0.59961498  0.64812376     0.07400
N25         N  0.70632259  0.39212172  0.68567188    -0.27000
N26         N  0.70723677  0.36251707  0.68269449    -0.34900
C27         C  0.73665450  0.36465036  0.68882996     0.01300
C28         C  0.75525584  0.39709645  0.69610169     0.07300
C29         C  0.73513223  0.41381316  0.69377062    -0.05800
H30         H  0.74371983  0.34381261  0.68815217     0.08000
H31         H  0.74107012  0.44005626  0.69743258     0.09200
Cu32       Cu  0.66869232  0.32018535  0.67043294     0.44200
Cu33       Cu  0.66573276  0.40180094  0.67893281     0.42000
Cu34       Cu  0.59255677  0.32825679  0.66002689     0.43900
N35         N  0.62682993  0.28215952  0.65781401    -0.34400
N36         N  0.59888589  0.28528962  0.65404330    -0.28700
C37         C  0.57717061  0.25748080  0.64548967    -0.04800
C38         C  0.59196512  0.23545260  0.64376184     0.07400
C39         C  0.62360675  0.25216156  0.65174487     0.01200
H40         H  0.55256272  0.25386948  0.64075618     0.08900
H41         H  0.64363333  0.24405916  0.65263723     0.08000
N42         N  0.59263938  0.37475919  0.66590390    -0.35900
N43         N  0.61986177  0.40235154  0.67225252    -0.28000
C44         C  0.61196404  0.42881326  0.67378625    -0.03300
C45         C  0.57794449  0.41694943  0.66835326     0.05300
C46         C  0.56652160  0.38263389  0.66345565     0.03400
H47         H  0.62949638  0.45458371  0.67862648     0.08500
H48         H  0.54140175  0.36497362  0.65816428     0.07400
C49         C  0.04797154  0.49861613  0.75336582     0.03400
C50         C  0.04688024  0.49867690  0.76889115    -0.12800
C51         C  0.01489052  0.48892799  0.77642967     0.00900
C52         C  0.98361686  0.47860173  0.76824624    -0.11300
C53         C  0.98421783  0.47824834  0.75270052     0.03400
C54         C  0.01651557  0.48841273  0.74532513    -0.10700
H55         H  0.07105864  0.50637755  0.77513354     0.09000
H56         H  0.95870908  0.47060809  0.77396612     0.06500
H57         H  0.01713384  0.48825025  0.73333249     0.06400
C58         C  0.49902238  0.95736824  0.57813810     0.03400
C59         C  0.50370726  0.95914951  0.56272372    -0.12800
C60         C  0.51439268  0.99118507  0.55505570     0.00900
C61         C  0.52149039  0.02202777  0.56301756    -0.11300
C62         C  0.51696444  0.02068589  0.57843189     0.03400
C63         C  0.50562067  0.98830135  0.58588887    -0.10700
H64         H  0.49900267  0.93554374  0.55664520     0.09000
H65         H  0.53049322  0.04705172  0.55723960     0.06500
H66         H  0.50223275  0.98729957  0.59779800     0.06400
N67         N  0.70727446  0.27220769  0.97602139    -0.27000
N68         N  0.71300801  0.30200758  0.98258846    -0.34900
C69         C  0.74364328  0.32911865  0.97753520     0.01300
C70         C  0.75833250  0.31592946  0.96736471     0.07300
C71         C  0.73428852  0.27970414  0.96659521    -0.05800
H72         H  0.75408422  0.35649806  0.98097404     0.08000
H73         H  0.73666340  0.26005444  0.95995971     0.09200
Cu74       Cu  0.67998196  0.30575308  0.99833519     0.44200
Cu75       Cu  0.66404637  0.22255901  0.98084677     0.42000
Cu76       Cu  0.60559679  0.22463427  0.00968446     0.43900
N77         N  0.64208978  0.30390925  0.01299005    -0.34400
N78         N  0.61407416  0.27371721  0.01700005    -0.28700
C79         C  0.59359847  0.28087248  0.02604372    -0.04800
C80         C  0.60944089  0.31755587  0.02787866     0.07400
C81         C  0.64039974  0.33118200  0.01944717     0.01200
H82         H  0.56872523  0.26072445  0.03074919     0.08900
H83         H  0.66059013  0.35874570  0.01812685     0.08000
N84         N  0.60151040  0.17848474  0.00080354    -0.35900
N85         N  0.62181074  0.17737933  0.99010405    -0.28000
C86         C  0.61168944  0.14310190  0.98714680    -0.03300
C87         C  0.58361622  0.12127500  0.99649589     0.05300
C88         C  0.57821817  0.14514217  0.00500528     0.03400
H89         H  0.62443674  0.13498642  0.97889423     0.08500
H90         H  0.55935054  0.13954142  0.01382271     0.07400
N91         N  0.32741411  0.70118198  0.97842227    -0.27000
N92         N  0.32368289  0.67048835  0.98315370    -0.34900
C93         C  0.29351046  0.64374617  0.97747327     0.01300
C94         C  0.27761263  0.65825891  0.96862720     0.07300
C95         C  0.29997752  0.69476047  0.96943107    -0.05800
H96         H  0.28426088  0.61575961  0.97938968     0.08000
H97         H  0.29636803  0.71516886  0.96401612     0.09200
Cu98       Cu  0.36057805  0.66637158  0.99668011     0.44200
Cu99       Cu  0.36941985  0.75022409  0.98473412     0.42000
Cu100      Cu  0.43599804  0.74882139  0.00919909     0.43900
N101        N  0.40067584  0.66870102  0.01025914    -0.34400
N102        N  0.42804202  0.69871388  0.01494649    -0.28700
C103        C  0.44797584  0.69097455  0.02408816    -0.04800
C104        C  0.43256855  0.65413782  0.02522435     0.07400
C105        C  0.40259502  0.64110184  0.01622147     0.01200
H106        H  0.47116089  0.71095808  0.02986063     0.08900
H107        H  0.38317499  0.61350759  0.01422707     0.08000
N108        N  0.43717862  0.79519682  0.00198334    -0.35900
N109        N  0.41312702  0.79556359  0.99300564    -0.28000
C110        C  0.42178563  0.82953591  0.99025680    -0.03300
C111        C  0.45284933  0.85174840  0.99783037     0.05300
C112        C  0.46168592  0.82900283  0.00523859     0.03400
H113        H  0.40627408  0.83733840  0.98335784     0.08500
H114        H  0.48461658  0.83646129  0.01225983     0.07400
C115        C  0.98605139  0.46992609  0.91174309     0.03400
C116        C  0.98605738  0.47031479  0.89621244    -0.12800
C117        C  0.01702474  0.49282714  0.88827016     0.00900
C118        C  0.04822655  0.51576713  0.89600805    -0.11300
C119        C  0.04893005  0.51594656  0.91156539     0.03400
C120        C  0.01764086  0.49290158  0.91936077    -0.10700
H121        H  0.96188445  0.45273838  0.89025041     0.09000
H122        H  0.07219397  0.53317968  0.88988523     0.06500
H123        H  0.01795487  0.49257176  0.93133779     0.06400
C124        C  0.50047049  0.50013510  0.08719115     0.03400
C125        C  0.50127485  0.50126447  0.10275682    -0.12800
C126        C  0.51030800  0.47909675  0.11093906     0.00900
C127        C  0.51966370  0.45633103  0.10340061    -0.11300
C128        C  0.51942311  0.45506144  0.08786895     0.03400
C129        C  0.50966424  0.47693834  0.07987331    -0.10700
H130        H  0.49498070  0.51949338  0.10855786     0.09000
H131        H  0.52737557  0.43971122  0.10963817     0.06500
H132        H  0.50963755  0.47619382  0.06788924     0.06400
N133        N  0.73436004  0.28800709  0.34859400    -0.27000
N134        N  0.70356545  0.28262843  0.34324608    -0.34900
C135        C  0.67729927  0.25186759  0.34875141     0.01300
C136        C  0.69231930  0.23726150  0.35807053     0.07300
C137        C  0.72852995  0.26106219  0.35773871    -0.05800
H138        H  0.64927752  0.24160616  0.34651983     0.08000
H139        H  0.74918876  0.25902928  0.36373505     0.09200
Cu140      Cu  0.69884871  0.31901974  0.32966547     0.44200
Cu141      Cu  0.78281879  0.33242800  0.34374598     0.42000
Cu142      Cu  0.77922528  0.40599247  0.32655122     0.43900
N143        N  0.70134996  0.36211444  0.31827743    -0.34400
N144        N  0.73015277  0.39383510  0.31748034    -0.28700
C145        C  0.72249784  0.41576421  0.30963134    -0.04800
C146        C  0.68714462  0.39699407  0.30514824     0.07400
C147        C  0.67468781  0.36305226  0.31092908     0.01200
H148        H  0.74137085  0.44348722  0.30760456     0.08900
H149        H  0.64817605  0.34047696  0.30983989     0.08000
N150        N  0.82632866  0.40873633  0.33382137    -0.35900
N151        N  0.82760611  0.38096077  0.33934165    -0.28000
C152        C  0.86178884  0.38987861  0.34170416    -0.03300
C153        C  0.88309349  0.42515160  0.33771569     0.05300
C154        C  0.85974968  0.43634853  0.33278362     0.03400
H155        H  0.87049912  0.37201183  0.34604620     0.08500
H156        H  0.86662814  0.46216975  0.32823153     0.07400
N157        N  0.30512204  0.68604348  0.35143064    -0.27000
N158        N  0.33477367  0.68968905  0.34550738    -0.34900
C159        C  0.36268063  0.71911399  0.35101644     0.01300
C160        C  0.35008285  0.73451593  0.36107066     0.07300
C161        C  0.31341459  0.71287579  0.36104386    -0.05800
H162        H  0.39023334  0.72784829  0.34833917     0.08000
H163        H  0.29417984  0.71622626  0.36755376     0.09200
Cu164      Cu  0.33641216  0.65255854  0.33148601     0.44200
Cu165      Cu  0.25522980  0.64377445  0.34644647     0.42000
Cu166      Cu  0.25438766  0.57028735  0.32558188     0.43900
N167        N  0.33354757  0.61005261  0.31968054    -0.34400
N168        N  0.30386650  0.57960642  0.31756602    -0.28700
C169        C  0.31157723  0.55790315  0.30949291    -0.04800
C170        C  0.34794814  0.57547706  0.30646408     0.07400
C171        C  0.36076040  0.60859565  0.31308836     0.01200
H172        H  0.29209824  0.53126710  0.30609034     0.08900
H173        H  0.38771607  0.63062442  0.31287297     0.08000
N174        N  0.20872715  0.57029310  0.33356760    -0.35900
N175        N  0.20922345  0.59759331  0.34052920    -0.28000
C176        C  0.17556125  0.59008664  0.34329922    -0.03300
C177        C  0.15266059  0.55622566  0.33807418     0.05300
C178        C  0.17458387  0.54442692  0.33198711     0.03400
H179        H  0.16830486  0.60788258  0.34884579     0.08500
H180        H  0.16628435  0.51929605  0.32643863     0.07400
C181        C  0.49277305  0.49405501  0.24623493     0.03400
C182        C  0.51469870  0.48400650  0.25399473    -0.12800
C183        C  0.53759349  0.47488270  0.24637916     0.00900
C184        C  0.53818452  0.47580781  0.23081345    -0.11300
C185        C  0.51618897  0.48551624  0.22288331     0.03400
C186        C  0.49373671  0.49482701  0.23071139    -0.10700
H187        H  0.51398168  0.48340139  0.26598593     0.09000
H188        H  0.55563929  0.46874078  0.22484861     0.06500
H189        H  0.47688802  0.50265479  0.22471535     0.06400
C190        C  0.55383931  0.01648087  0.41987358     0.03400
C191        C  0.55255214  0.01770748  0.43541470    -0.12800
C192        C  0.52946270  0.98722430  0.44361050     0.00900
C193        C  0.50718847  0.95541074  0.43606104    -0.11300
C194        C  0.50814482  0.95388661  0.42061260     0.03400
C195        C  0.53132606  0.98435699  0.41257750    -0.10700
H196        H  0.56932701  0.04252805  0.44112307     0.09000
H197        H  0.48942268  0.93158555  0.44219226     0.06500
H198        H  0.53098175  0.98315780  0.40059562     0.06400
C199        C  0.47616507  0.87199979  0.39656217    -0.27400
C200        C  0.43913557  0.85865896  0.39658148     0.02200
C201        C  0.42487724  0.87617526  0.40509040     0.30300
C202        C  0.44755635  0.90663500  0.41323742    -0.19100
C203        C  0.48454523  0.92046779  0.41276746    -0.28600
C204        C  0.49881837  0.90280308  0.40448373     0.44400
C205        C  0.41584931  0.82706530  0.38741035     0.05600
O206        O  0.38895701  0.86436712  0.40519043    -0.57100
H207        H  0.43636059  0.92014865  0.41957856     0.18500
O208        O  0.53490598  0.91562471  0.40399197    -0.63800
H209        H  0.48758505  0.85858186  0.39030729     0.16900
C210        C  0.42359384  0.82558385  0.37234361     0.29200
C211        C  0.40193791  0.79529450  0.36394423    -0.24700
C212        C  0.37181966  0.76640991  0.37020891    -0.24000
C213        C  0.36373455  0.76798487  0.38521300     0.40600
C214        C  0.38576215  0.79807892  0.39370154    -0.26400
O215        O  0.45211708  0.85373778  0.36566516    -0.58300
H216        H  0.40844658  0.79459092  0.35240629     0.16300
O217        O  0.33503493  0.73989321  0.39181992    -0.59700
H218        H  0.37964166  0.79851031  0.40530706     0.14700
H219        H  0.54030576  0.90541515  0.41281304     0.46600
H220        H  0.44352971  0.87050763  0.36289320     0.42000
H221        H  0.34405684  0.72405586  0.39543618     0.45400
H222        H  0.38459487  0.87543247  0.39638556     0.36900
C223        C  0.42426243  0.56483887  0.29040893    -0.27400
C224        C  0.40668408  0.53876866  0.27955176     0.02200
C225        C  0.36968485  0.52413546  0.27777760     0.30300
C226        C  0.35084203  0.53594063  0.28669616    -0.19100
C227        C  0.36840252  0.56243993  0.29751709    -0.28600
C228        C  0.40550048  0.57639027  0.29945560     0.44400
C229        C  0.42729761  0.52669829  0.27036662     0.05600
O230        O  0.35175754  0.49850064  0.26726378    -0.57100
H231        H  0.32249412  0.52472179  0.28491778     0.18500
O232        O  0.42377369  0.60078238  0.31034099    -0.63800
H233        H  0.45266730  0.57587845  0.29204477     0.16900
C234        C  0.45278530  0.54983775  0.26011832     0.29200
C235        C  0.47333328  0.53859860  0.25207532    -0.24700
C236        C  0.46942214  0.50460304  0.25434327    -0.24000
C237        C  0.44350584  0.48125194  0.26443578     0.40600
C238        C  0.42259853  0.49232901  0.27232433    -0.26400
O239        O  0.45738592  0.58329430  0.25774640    -0.58300
H240        H  0.49296722  0.55677862  0.24428163     0.16300
O241        O  0.43845131  0.44758602  0.26667240    -0.59700
H242        H  0.40308991  0.47428791  0.28018943     0.14700
H243        H  0.42104672  0.58643306  0.31932700     0.46600
H244        H  0.47788974  0.59934948  0.26404404     0.42000
H245        H  0.42086697  0.43256206  0.25906826     0.45400
H246        H  0.35341133  0.51183240  0.25807552     0.36900
C247        C  0.97851064  0.49788643  0.34425267    -0.27400
C248        C  0.99791172  0.48257467  0.33809020     0.02200
C249        C  0.97890122  0.44830555  0.33167987     0.30300
C250        C  0.94161501  0.42983865  0.33183538    -0.19100
C251        C  0.92245228  0.44541054  0.33779835    -0.28600
C252        C  0.94114708  0.47979842  0.34394821     0.44400
C253        C  0.03773289  0.50215322  0.33848095     0.05600
O254        O  0.99644510  0.43270607  0.32503039    -0.57100
H255        H  0.92756988  0.40348085  0.32695871     0.18500
O256        O  0.92316836  0.49561943  0.35000975    -0.63800
H257        H  0.99228039  0.52374506  0.34954121     0.16900
C258        C  0.05764956  0.53844157  0.33444523     0.29200
C259        C  0.09502644  0.55581154  0.33457718    -0.24700
C260        C  0.11322668  0.53747511  0.33844806    -0.24000
C261        C  0.09349118  0.50146325  0.34265562     0.40600
C262        C  0.05618651  0.48424395  0.34280204    -0.26400
O263        O  0.04089658  0.55661738  0.32956667    -0.58300
H264        H  0.10984569  0.58350645  0.33123361     0.16300
O265        O  0.11039976  0.48295330  0.34685589    -0.59700
H266        H  0.04162911  0.45671990  0.34637311     0.14700
H267        H  0.91890582  0.48765927  0.36047552     0.46600
H268        H  0.04459656  0.57408387  0.33748450     0.42000
H269        H  0.11392145  0.48669332  0.35769448     0.45400
H270        H  0.00122602  0.44212584  0.31477846     0.36900
C271        C  0.61740931  0.07870508  0.39049485    -0.27400
C272        C  0.61875979  0.11093616  0.39422069     0.02200
C273        C  0.60000917  0.11244547  0.40668121     0.30300
C274        C  0.57929287  0.08166227  0.41499761    -0.19100
C275        C  0.57741578  0.04909884  0.41123420    -0.28600
C276        C  0.59738709  0.04804671  0.39901174     0.44400
C277        C  0.63873195  0.14265977  0.38476988     0.05600
O278        O  0.60039937  0.14353973  0.41036149    -0.57100
H279        H  0.56395764  0.08312889  0.42420866     0.18500
O280        O  0.59767646  0.01729494  0.39530802    -0.63800
H281        H  0.63206250  0.07740046  0.38098327     0.16900
C282        C  0.66973804  0.17258973  0.38996957     0.29200
C283        C  0.68709347  0.20310483  0.38112861    -0.24700
C284        C  0.67383181  0.20432821  0.36705199    -0.24000
C285        C  0.64318515  0.17392999  0.36174724     0.40600
C286        C  0.62594121  0.14339678  0.37058889    -0.26400
O287        O  0.68303898  0.17236889  0.40373409    -0.58300
H288        H  0.71063915  0.22609093  0.38541321     0.16300
O289        O  0.63000809  0.17357833  0.34790015    -0.59700
H290        H  0.60218240  0.12036669  0.36645771     0.14700
H291        H  0.61563255  0.01652212  0.40192500     0.46600
H292        H  0.69832079  0.16130798  0.40228022     0.42000
H293        H  0.64372633  0.16669096  0.34112367     0.45400
H294        H  0.61786907  0.15390084  0.41854544     0.36900
C295        C  0.58461995  0.42423439  0.25907176    -0.27400
C296        C  0.60429011  0.44478917  0.27118288     0.02200
C297        C  0.60246593  0.47548702  0.27503345     0.30300
C298        C  0.58089402  0.48514714  0.26684076    -0.19100
C299        C  0.56088933  0.46448370  0.25472157    -0.28600
C300        C  0.56303721  0.43379618  0.25086888     0.44400
C301        C  0.62560115  0.43314754  0.28003075     0.05600
O302        O  0.62147252  0.49604272  0.28684362    -0.57100
H303        H  0.57987185  0.50893401  0.26994092     0.18500
O304        O  0.54355192  0.41245455  0.23932047    -0.63800
H305        H  0.58573106  0.40042945  0.25607594     0.16900
C306        C  0.60876522  0.40342562  0.28941067     0.29200
C307        C  0.62911264  0.39227810  0.29759207    -0.24700
C308        C  0.66649527  0.41003205  0.29640457    -0.24000
C309        C  0.68323349  0.43962237  0.28674889     0.40600
C310        C  0.66279521  0.45117787  0.27882262    -0.26400
O311        O  0.57240493  0.38562081  0.29091238    -0.58300
H312        H  0.61542502  0.36974417  0.30496116     0.16300
O313        O  0.71938136  0.45700699  0.28463048    -0.59700
H314        H  0.67595951  0.47384844  0.27145866     0.14700
H315        H  0.51986144  0.39595381  0.24356812     0.46600
H316        H  0.56371547  0.36564862  0.28374060     0.42000
H317        H  0.72349992  0.44339126  0.27674678     0.45400
H318        H  0.60596476  0.48503461  0.29558347     0.36900
C319        C  0.49387486  0.44984470  0.15123159    -0.27400
C320        C  0.51217611  0.48259056  0.15867363     0.02200
C321        C  0.52922919  0.51428290  0.15033554     0.30300
C322        C  0.52836683  0.51285908  0.13483592    -0.19100
C323        C  0.51041911  0.48005546  0.12738282    -0.28600
C324        C  0.49266546  0.44842699  0.13574807     0.44400
C325        C  0.51316227  0.48337148  0.17511343     0.05600
O326        O  0.54662620  0.54680267  0.15723464    -0.57100
H327        H  0.54204581  0.53747021  0.12861369     0.18500
O328        O  0.47369401  0.41598518  0.12890510    -0.63800
H329        H  0.48052988  0.42522192  0.15746403     0.16900
C330        C  0.48147745  0.46712287  0.18346515     0.29200
C331        C  0.48292068  0.46793686  0.19894439    -0.24700
C332        C  0.51572670  0.48496631  0.20641948    -0.24000
C333        C  0.54746829  0.50133375  0.19804773     0.40600
C334        C  0.54600164  0.50034473  0.18254540    -0.26400
O335        O  0.44890070  0.45059213  0.17660085    -0.58300
H336        H  0.45822951  0.45502487  0.20514688     0.16300
O337        O  0.58005079  0.51879668  0.20487565    -0.59700
H338        H  0.57063166  0.51282115  0.17629162     0.14700
H339        H  0.44972489  0.41317698  0.12712461     0.46600
H340        H  0.44303891  0.46979639  0.17465895     0.42000
H341        H  0.58454447  0.54343592  0.20647568     0.45400
H342        H  0.52815930  0.55386581  0.15886506     0.36900
C343        C  0.18307943  0.59086774  0.95751249    -0.27400
C344        C  0.18147132  0.60156786  0.94301393     0.02200
C345        C  0.21151398  0.63122128  0.93696351     0.30300
C346        C  0.24246699  0.65000199  0.94551603    -0.19100
C347        C  0.24429756  0.63887049  0.95995521    -0.28600
C348        C  0.21419132  0.60908248  0.96593294     0.44400
C349        C  0.14816001  0.58128515  0.93442160     0.05600
O350        O  0.21050171  0.64253083  0.92287095    -0.57100
H351        H  0.26532901  0.67287267  0.94074444     0.18500
O352        O  0.21465694  0.59784589  0.98008851    -0.63800
H353        H  0.16011898  0.56808642  0.96228385     0.16900
C354        C  0.14671044  0.56036971  0.92220462     0.29200
C355        C  0.11438105  0.53955735  0.91483941    -0.24700
C356        C  0.08293169  0.53896330  0.91951748    -0.24000
C357        C  0.08454079  0.56024249  0.93169724     0.40600
C358        C  0.11698988  0.58112787  0.93904320    -0.26400
O359        O  0.17659523  0.55950368  0.91757122    -0.58300
H360        H  0.11375090  0.52319049  0.90560755     0.16300
O361        O  0.05491400  0.56189919  0.93611831    -0.59700
H362        H  0.11783296  0.59722912  0.94841912     0.14700
H363        H  0.20692722  0.61157029  0.98644136     0.46600
H364        H  0.17709161  0.54034739  0.92348062     0.42000
H365        H  0.04791578  0.54926432  0.94576340     0.45400
H366        H  0.22342651  0.63353873  0.91666646     0.36900
C367        C  0.45320278  0.55042711  0.07412448    -0.27400
C368        C  0.47304419  0.56798344  0.06148395     0.02200
C369        C  0.50201718  0.56325650  0.05739506     0.30300
C370        C  0.51085923  0.54155072  0.06592180    -0.19100
C371        C  0.49081160  0.52362537  0.07850625    -0.28600
C372        C  0.46151274  0.52807677  0.08247401     0.44400
C373        C  0.46269423  0.59028925  0.05241145     0.05600
O374        O  0.52157668  0.57931359  0.04494585    -0.57100
H375        H  0.53356781  0.53876618  0.06265716     0.18500
O376        O  0.44023684  0.51009527  0.09428124    -0.63800
H377        H  0.43088827  0.55379313  0.07747533     0.16900
C378        C  0.42781524  0.57624437  0.04691262     0.29200
C379        C  0.41864325  0.59731550  0.03813981    -0.24700
C380        C  0.44371143  0.63280391  0.03465422    -0.24000
C381        C  0.47876658  0.64684371  0.04021776     0.40600
C382        C  0.48785976  0.62569760  0.04904463    -0.26400
O383        O  0.40284282  0.54137562  0.04952945    -0.58300
H384        H  0.39152914  0.58559601  0.03416712     0.16300
O385        O  0.50464678  0.68093582  0.03698555    -0.59700
H386        H  0.51480144  0.63701278  0.05324834     0.14700
H387        H  0.42209384  0.48675552  0.09024073     0.46600
H388        H  0.38644218  0.54228869  0.05700604     0.42000
H389        H  0.51609124  0.67889537  0.02778611     0.45400
H390        H  0.50872021  0.56261523  0.03672623     0.36900
C391        C  0.51862335  0.02448235  0.00729624    -0.27400
C392        C  0.53019326  0.00587687  0.99821427     0.02200
C393        C  0.55916727  0.02500180  0.98865586     0.30300
C394        C  0.57615699  0.06225215  0.98827847    -0.19100
C395        C  0.56465114  0.08138990  0.99730142    -0.28600
C396        C  0.53517865  0.06171339  0.00682696     0.44400
C397        C  0.51077491  0.96644942  0.99827707     0.05600
O398        O  0.57105525  0.00748223  0.97958145    -0.57100
H399        H  0.59844300  0.07589834  0.98082119     0.18500
O400        O  0.52179352  0.07810852  0.01570491    -0.63800
H401        H  0.49594695  0.00997587  0.01454624     0.16900
C402        C  0.50829741  0.94703952  0.01117292     0.29200
C403        C  0.48975978  0.90968117  0.01085022    -0.24700
C404        C  0.47263272  0.89122812  0.99786892    -0.24000
C405        C  0.47487531  0.91082401  0.98502441     0.40600
C406        C  0.49410406  0.94808903  0.98527903    -0.26400
O407        O  0.52486377  0.96436296  0.02397974    -0.58300
H408        H  0.48834154  0.89512458  0.02083679     0.16300
O409        O  0.45988185  0.89383466  0.97196352    -0.59700
H410        H  0.49580414  0.96276320  0.97528841     0.14700
H411        H  0.50243375  0.07834220  0.00984884     0.46600
H412        H  0.50578911  0.96431826  0.03015225     0.42000
H413        H  0.43870427  0.89687915  0.97053785     0.45400
H414        H  0.58777961  0.00341984  0.98572916     0.36900
C415        C  0.85252330  0.38664034  0.95714171    -0.27400
C416        C  0.85599992  0.37570618  0.94294968     0.02200
C417        C  0.82788745  0.34437498  0.93694624     0.30300
C418        C  0.79645548  0.32468754  0.94510366    -0.19100
C419        C  0.79243339  0.33618643  0.95919716    -0.28600
C420        C  0.82119902  0.36720585  0.96527409     0.44400
C421        C  0.88880135  0.39815849  0.93444134     0.05600
O422        O  0.83118044  0.33254283  0.92324815    -0.57100
H423        H  0.77493399  0.30083987  0.94023981     0.18500
O424        O  0.81932088  0.37870580  0.97922429    -0.63800
H425        H  0.87415184  0.41063837  0.96188287     0.16900
C426        C  0.88843770  0.41918852  0.92262772     0.29200
C427        C  0.92021992  0.44249687  0.91541389    -0.24700
C428        C  0.95282283  0.44527728  0.91980956    -0.24000
C429        C  0.95293871  0.42365687  0.93153266     0.40600
C430        C  0.92113981  0.40065583  0.93885333    -0.26400
O431        O  0.85721044  0.41757890  0.91822833    -0.58300
H432        H  0.91944415  0.45886940  0.90647806     0.16300
O433        O  0.98382486  0.42438137  0.93580494    -0.59700
H434        H  0.92166295  0.38463051  0.94799145     0.14700
H435        H  0.82690174  0.36549644  0.98594944     0.46600
H436        H  0.85476411  0.43509220  0.92454260     0.42000
H437        H  0.98659263  0.40795457  0.92892367     0.45400
H438        H  0.81886033  0.34080527  0.91634313     0.36900
C439        C  0.52313560  0.39035148  0.06014928    -0.27400
C440        C  0.55558709  0.39227187  0.06388151     0.02200
C441        C  0.57507865  0.41309060  0.07603216     0.30300
C442        C  0.56271519  0.43284911  0.08395003    -0.19100
C443        C  0.53073028  0.43195462  0.07995917    -0.28600
C444        C  0.51051371  0.40976499  0.06814759     0.44400
C445        C  0.56933783  0.37315748  0.05478575     0.05600
O446        O  0.60663196  0.41489793  0.08002213    -0.57100
H447        H  0.57862354  0.44961192  0.09300010     0.18500
O448        O  0.47838620  0.40684589  0.06432521    -0.63800
H449        H  0.50771909  0.37396589  0.05092074     0.16900
C450        C  0.55746353  0.33680802  0.05704871     0.29200
C451        C  0.57092426  0.31922464  0.04831626    -0.24700
C452        C  0.59588592  0.33727511  0.03699628    -0.24000
C453        C  0.60700738  0.37372523  0.03456549     0.40600
C454        C  0.59405712  0.39137481  0.04355208    -0.26400
O455        O  0.53320420  0.31842534  0.06797104    -0.58300
H456        H  0.56187941  0.29139732  0.05055294     0.16300
O457        O  0.62989593  0.39237084  0.02329056    -0.59700
H458        H  0.60293194  0.41932387  0.04159880     0.14700
H459        H  0.46075896  0.38847223  0.07106150     0.46600
H460        H  0.50958179  0.30832562  0.06310387     0.42000
H461        H  0.61447273  0.38820092  0.01452515     0.45400
H462        H  0.59995719  0.39513532  0.08717396     0.36900
C463        C  0.50317908  0.00535503  0.51434683    -0.27400
C464        C  0.52192671  0.99022197  0.50756283     0.02200
C465        C  0.53876793  0.97602183  0.51645629     0.30300
C466        C  0.53668692  0.97707648  0.53188898    -0.19100
C467        C  0.51772886  0.99201175  0.53870340    -0.28600
C468        C  0.50081026  0.00613323  0.52977278     0.44400
C469        C  0.52370580  0.98935102  0.49121014     0.05600
O470        O  0.55692859  0.96064431  0.51016430    -0.57100
H471        H  0.54981156  0.96604158  0.53856753     0.18500
O472        O  0.48124361  0.02006099  0.53598767    -0.63800
H473        H  0.49024652  0.01654836  0.50764397     0.16900
C474        C  0.49244920  0.97279520  0.48263584     0.29200
C475        C  0.49472952  0.97245727  0.46719192    -0.24700
C476        C  0.52797787  0.98849952  0.46002240    -0.24000
C477        C  0.55927536  0.00481713  0.46867359     0.40600
C478        C  0.55694034  0.00531291  0.48411192    -0.26400
O479        O  0.45961479  0.95565450  0.48929651    -0.58300
H480        H  0.47033399  0.95971712  0.46079744     0.16300
O481        O  0.59230706  0.01978385  0.46221009    -0.59700
H482        H  0.58120724  0.01818375  0.49058777     0.14700
H483        H  0.45706343  0.99941438  0.53742772     0.46600
H484        H  0.44943279  0.97173892  0.48800431     0.42000
H485        H  0.59701536  0.99970476  0.46057377     0.45400
H486        H  0.53872673  0.93539344  0.50846259     0.36900
C487        C  0.00284283  0.45923590  0.84861717    -0.27400
C488        C  0.01616350  0.49112532  0.84057966     0.02200
C489        C  0.03007385  0.52367319  0.84832167     0.30300
C490        C  0.03026209  0.52393061  0.86382227    -0.19100
C491        C  0.01684349  0.49200211  0.87185431    -0.28600
C492        C  0.00339875  0.45950440  0.86409537     0.44400
C493        C  0.01551559  0.49011895  0.82415101     0.05600
O494        O  0.04375563  0.55540282  0.84084414    -0.57100
H495        H  0.04072099  0.54915315  0.86959345     0.18500
O496        O  0.99109927  0.42784678  0.87152505    -0.63800
H497        H  0.99184666  0.43395508  0.84286462     0.16900
C498        C  0.03094666  0.47289829  0.81624594     0.29200
C499        C  0.03043008  0.47263723  0.80075032    -0.24700
C500        C  0.01431992  0.48906014  0.79286226    -0.24000
C501        C  0.99869653  0.50611991  0.80078524     0.40600
C502        C  0.99927971  0.50644241  0.81628553    -0.26400
O503        O  0.04791663  0.45756751  0.82356942    -0.58300
H504        H  0.04261374  0.45942711  0.79486781     0.16300
O505        O  0.98338716  0.52315002  0.79350657    -0.59700
H506        H  0.98701787  0.51953419  0.82219789     0.14700
H507        H  0.01255072  0.42558191  0.87350420     0.46600
H508        H  0.03171190  0.43148748  0.82278651     0.42000
H509        H  0.00325673  0.54743037  0.79142228     0.45400
H510        H  0.06895621  0.56231629  0.83881546     0.36900
C511        C  0.57601453  0.14712713  0.62743850    -0.27400
C512        C  0.55429416  0.14346405  0.61528678     0.02200
C513        C  0.54361524  0.16905334  0.61288369     0.30300
C514        C  0.55552764  0.19847346  0.62236570    -0.19100
C515        C  0.57816735  0.20288456  0.63438474    -0.28600
C516        C  0.58761644  0.17625619  0.63704911     0.44400
C517        C  0.54381779  0.11326449  0.60499232     0.05600
O518        O  0.52198183  0.16580498  0.60116955    -0.57100
H519        H  0.54768827  0.21830331  0.62002678     0.18500
O520        O  0.60787801  0.17809661  0.64905775    -0.63800
H521        H  0.58397751  0.12723172  0.62947916     0.16900
C522        C  0.56876795  0.11294500  0.59503519     0.29200
C523        C  0.55929566  0.08321413  0.58598367    -0.24700
C524        C  0.52518317  0.05326523  0.58692799    -0.24000
C525        C  0.49986242  0.05409948  0.59658086     0.40600
C526        C  0.50926339  0.08401359  0.60552166    -0.26400
O527        O  0.60245856  0.14164854  0.59408743    -0.58300
H528        H  0.57900360  0.08304263  0.57857839     0.16300
O529        O  0.46602443  0.02562170  0.59748688    -0.59700
H530        H  0.48982520  0.08410935  0.61310921     0.14700
H531        H  0.59058958  0.16629711  0.65721339     0.46600
H532        H  0.61701589  0.13636379  0.60106372     0.42000
H533        H  0.45292508  0.02855065  0.58906512     0.45400
H534        H  0.53836029  0.17735224  0.59272120     0.36900
C535        C  0.83184538  0.44823904  0.72317730    -0.27400
C536        C  0.85459927  0.43477049  0.71956790     0.02200
C537        C  0.84489689  0.40930704  0.70825649     0.30300
C538        C  0.81269601  0.39752341  0.70069557    -0.19100
C539        C  0.78950379  0.41069886  0.70427783    -0.28600
C540        C  0.79934546  0.43617141  0.71576031     0.44400
C541        C  0.88782996  0.44634597  0.72802185     0.05600
O542        O  0.86662436  0.39553261  0.70461196    -0.57100
H543        H  0.80606232  0.37813685  0.69192704     0.18500
O544        O  0.77710942  0.44874571  0.72017468    -0.63800
H545        H  0.83895631  0.46757368  0.73201872     0.16900
C546        C  0.91811366  0.47960987  0.72536203     0.29200
C547        C  0.94954994  0.48963735  0.73333000    -0.24700
C548        C  0.95098552  0.46699598  0.74417667    -0.24000
C549        C  0.92056986  0.43365427  0.74677541     0.40600
C550        C  0.88932022  0.42355255  0.73871178    -0.26400
O551        O  0.91745650  0.50203231  0.71474783    -0.58300
H552        H  0.97273764  0.51529980  0.73116512     0.16300
O553        O  0.92128092  0.41054509  0.75703238    -0.59700
H554        H  0.86615810  0.39779841  0.74077034     0.14700
H555        H  0.76145222  0.43167670  0.72780453     0.46600
H556        H  0.90980749  0.51736016  0.72001684     0.42000
H557        H  0.93084862  0.39695286  0.75166567     0.45400
H558        H  0.88326151  0.41202659  0.69706973     0.36900
C559        C  0.50400316  0.44018417  0.67070461    -0.27400
C560        C  0.51980405  0.47386620  0.66391189     0.02200
C561        C  0.55544504  0.48913104  0.65900177     0.30300
C562        C  0.57453962  0.47086596  0.66097249    -0.19100
C563        C  0.55826294  0.43684092  0.66736431    -0.28600
C564        C  0.52279516  0.42156217  0.67229094     0.44400
C565        C  0.49911981  0.49300747  0.66228107     0.05600
O566        O  0.57166342  0.52154531  0.65199083    -0.57100
H567        H  0.60176398  0.48279287  0.65703957     0.18500
O568        O  0.50637321  0.38858238  0.67883276    -0.63800
H569        H  0.47704984  0.42833100  0.67492750     0.16900
C570        C  0.46411323  0.47576609  0.65655800     0.29200
C571        C  0.44482027  0.49411156  0.65562100    -0.24700
C572        C  0.46016433  0.52981673  0.66004891    -0.24000
C573        C  0.49513521  0.54714828  0.66564735     0.40600
C574        C  0.51420987  0.52871876  0.66682492    -0.26400
O575        O  0.44916791  0.44154504  0.65126053    -0.58300
H576        H  0.41800510  0.48059060  0.65118444     0.16300
O577        O  0.51061436  0.58185776  0.67035393    -0.59700
H578        H  0.54072036  0.54226204  0.67154938     0.14700
H579        H  0.51265437  0.39311138  0.68947563     0.46600
H580        H  0.43004636  0.42675294  0.65838849     0.42000
H581        H  0.50324199  0.58052775  0.68084215     0.45400
H582        H  0.56482863  0.51616240  0.64143057     0.36900
C583        C  0.48086411  0.81476438  0.61340202    -0.27400
C584        C  0.45637893  0.82666217  0.61071277     0.02200
C585        C  0.42171169  0.80722668  0.61650034     0.33300
C586        C  0.41203807  0.77654823  0.62493246    -0.19100
C587        C  0.43655043  0.76460611  0.62780506    -0.28600
C588        C  0.47130891  0.78413413  0.62187181     0.44400
C589        C  0.46756147  0.85997984  0.60225818     0.05600
O590        O  0.39719716  0.81828444  0.61414876    -0.57100
H591        H  0.38511568  0.76204402  0.62917955     0.18500
O592        O  0.49650901  0.77414523  0.62448035    -0.63800
H593        H  0.50766292  0.82950513  0.60900183     0.16900
C594        C  0.49578879  0.89255750  0.60730182     0.29200
C595        C  0.50588736  0.92387916  0.59929738    -0.24700
C596        C  0.48795704  0.92348895  0.58624726    -0.24000
C597        C  0.45945497  0.89080378  0.58126431     0.40600
C598        C  0.44958941  0.85941119  0.58922670    -0.26400
O599        O  0.51341684  0.89411251  0.62015716    -0.58300
H600        H  0.52793133  0.94859519  0.60330372     0.16300
O601        O  0.44061286  0.88926783  0.56879132    -0.59700
H602        H  0.42772370  0.83452316  0.58525300     0.14700
H603        H  0.50842234  0.78639542  0.63379302     0.46600
H604        H  0.49972471  0.89788688  0.62810967     0.42000
H605        H  0.42253797  0.89563411  0.57214493     0.45400
H606        H  0.40118333  0.83541901  0.62224160     0.36900
C607        C  0.14470355  0.55139676  0.74133550    -0.27400
C608        C  0.14649265  0.52908645  0.73045485     0.02200
C609        C  0.11590572  0.49634612  0.72728866     0.30300
C610        C  0.08395097  0.48663689  0.73480693    -0.19100
C611        C  0.08205144  0.50919177  0.74558403    -0.28600
C612        C  0.11284359  0.54176603  0.74883516     0.44400
C613        C  0.17983492  0.54136578  0.72189466     0.05600
O614        O  0.11683741  0.47396953  0.71670764    -0.57100
H615        H  0.06059033  0.46140996  0.73223490     0.18500
O616        O  0.11189526  0.56477377  0.75909406    -0.63800
H617        H  0.16804524  0.57666999  0.74386924     0.16900
C618        C  0.19313617  0.57231926  0.71320377     0.29200
C619        C  0.22442302  0.58371433  0.70501882    -0.24700
C620        C  0.24358450  0.56504780  0.70546648    -0.24000
C621        C  0.23052712  0.53434953  0.71454744     0.40600
C622        C  0.19866983  0.52253678  0.72248430    -0.26400
O623        O  0.17483132  0.59081725  0.71215615    -0.58300
H624        H  0.23318548  0.60703092  0.69810542     0.16300
O625        O  0.24867372  0.51581366  0.71596769    -0.59700
H626        H  0.18892253  0.49890678  0.72932079     0.14700
H627        H  0.10389071  0.57945580  0.75355015     0.46600
H628        H  0.18742280  0.61153434  0.71887034     0.42000
H629        H  0.26541473  0.52736283  0.72429707     0.45400
H630        H  0.11122065  0.48187207  0.70726562     0.36900
loop_ 
_geom_bond_atom_site_label_1 
_geom_bond_atom_site_label_2 
_geom_bond_distance 
_geom_bond_site_symmetry_2 
_ccdc_geom_bond_type 
N1            N2   1.321       .  A
N1            C5   1.345       .  A
N1           Cu9   2.074       .  S
N2            C3   1.344       .  A
N2           Cu8   2.082       .  S
C3            C4   1.391       .  A
C3            H6   1.081       .  S
C4            C5   1.390       .  A
C4          C620   1.494       .  S
C5            H7   1.080       .  S
Cu8          N11   2.082       .  S
Cu9          N19   2.074       .  S
Cu10         N12   2.073       .  S
Cu10         N18   2.073       .  S
N11          N12   1.321       .  A
N11          C15   1.345       .  A
N12          C13   1.345       .  A
C13          C14   1.388       .  A
C13          H16   1.081       .  S
C14          C15   1.390       .  A
C14         C587   1.490       .  S
C15          H17   1.082       .  S
N18          N19   1.322       .  A
N18          C22   1.344       .  A
N19          C20   1.346       .  A
C20          C21   1.383       .  A
C20          H23   1.082       .  S
C21          C22   1.383       .  A
C21         C572   1.475       .  S
C22          H24   1.082       .  S
N25          N26   1.322       .  A
N25          C29   1.346       .  A
N25         Cu33   2.078       .  S
N26          C27   1.345       .  A
N26         Cu32   2.083       .  S
C27          C28   1.388       .  A
C27          H30   1.082       .  S
C28          C29   1.388       .  A
C28         C539   1.489       .  S
C29          H31   1.081       .  S
Cu32         N35   2.082       .  S
Cu33         N43   2.078       .  S
Cu34         N36   2.070       .  S
Cu34         N42   2.070       .  S
N35          N36   1.320       .  A
N35          C39   1.346       .  A
N36          C37   1.344       .  A
C37          C38   1.387       .  A
C37          H40   1.082       .  S
C38          C39   1.391       .  A
C38         C515   1.490       .  S
C39          H41   1.081       .  S
N42          N43   1.322       .  A
N42          C46   1.343       .  A
N43          C44   1.347       .  A
C44          C45   1.384       .  A
C44          H47   1.082       .  S
C45          C46   1.381       .  A
C45         C563   1.474       .  S
C46          H48   1.082       .  S
C49          C50   1.403       .  A
C49          C54   1.405       .  A
C49         C611   1.483       .  S
C50          C51   1.404       .  A
C50          H55   1.084       .  S
C51          C52   1.404   1_455  A
C51         C500   1.485       .  S
C52          C53   1.405       .  A
C52          H56   1.084       .  S
C53          C54   1.405   1_655  A
C53         C548   1.482       .  S
C54          H57   1.084       .  S
C58          C59   1.404       .  A
C58          C63   1.405       .  A
C58         C596   1.487       .  S
C59          C60   1.404       .  A
C59          H64   1.083       .  S
C60          C61   1.406   1_565  A
C60         C467   1.483       .  S
C61          C62   1.403       .  A
C61          H65   1.084       .  S
C62          C63   1.403   1_545  A
C62         C524   1.481       .  S
C63          H66   1.084       .  S
N67          N68   1.322       .  A
N67          C71   1.347       .  A
N67         Cu75   2.079       .  S
N68          C69   1.342       .  A
N68         Cu74   2.073       .  S
C69          C70   1.385       .  A
C69          H72   1.081       .  S
C70          C71   1.388       .  A
C70         C419   1.485       .  S
C71          H73   1.082       .  S
Cu74         N77   2.072   1_556  S
Cu75         N85   2.079       .  S
Cu76         N78   2.069       .  S
Cu76         N84   2.069       .  S
N77          N78   1.319       .  A
N77          C81   1.345       .  A
N78          C79   1.344       .  A
C79          C80   1.389       .  A
C79          H82   1.081       .  S
C80          C81   1.391       .  A
C80         C452   1.492       .  S
C81          H83   1.080       .  S
N84          N85   1.320   1_554  A
N84          C88   1.341       .  A
N85          C86   1.345       .  A
C86          C87   1.394       .  A
C86          H89   1.080       .  S
C87          C88   1.391   1_556  A
C87         C395   1.499       .  S
C88          H90   1.077       .  S
N91          N92   1.322       .  A
N91          C95   1.347       .  A
N91         Cu99   2.076       .  S
N92          C93   1.345       .  A
N92         Cu98   2.081       .  S
C93          C94   1.386       .  A
C93          H96   1.082       .  S
C94          C95   1.385       .  A
C94         C347   1.482       .  S
C95          H97   1.082       .  S
Cu98        N101   2.081   1_556  S
Cu99        N109   2.076       .  S
Cu100       N102   2.078       .  S
Cu100       N108   2.078       .  S
N101        N102   1.321       .  A
N101        C105   1.344       .  A
N102        C103   1.346       .  A
C103        C104   1.391       .  A
C103        H106   1.080       .  S
C104        C105   1.390       .  A
C104        C380   1.495       .  S
C105        H107   1.081       .  S
N108        N109   1.322   1_554  A
N108        C112   1.346       .  A
N109        C110   1.344       .  A
C110        C111   1.385       .  A
C110        H113   1.081       .  S
C111        C112   1.385   1_556  A
C111        C404   1.482       .  S
C112        H114   1.082       .  S
C115        C116   1.403       .  A
C115        C120   1.408   1_655  A
C115        C428   1.488       .  S
C116        C117   1.402   1_655  A
C116        H121   1.084       .  S
C117        C118   1.403       .  A
C117        C491   1.483       .  S
C118        C119   1.406       .  A
C118        H122   1.084       .  S
C119        C120   1.409       .  A
C119        C356   1.490       .  S
C120        H123   1.082       .  S
C124        C125   1.407       .  A
C124        C129   1.407       .  A
C124        C371   1.492       .  S
C125        C126   1.405       .  A
C125        H130   1.083       .  S
C126        C127   1.405       .  A
C126        C323   1.486       .  S
C127        C128   1.404       .  A
C127        H131   1.084       .  S
C128        C129   1.406       .  A
C128        C443   1.488       .  S
C129        H132   1.083       .  S
N133        N134   1.321       .  A
N133        C137   1.344       .  A
N133       Cu141   2.071       .  S
N134        C135   1.346       .  A
N134       Cu140   2.078       .  S
C135        C136   1.387       .  A
C135        H138   1.082       .  S
C136        C137   1.384       .  A
C136        C284   1.482       .  S
C137        H139   1.082       .  S
Cu140       N143   2.078       .  S
Cu141       N151   2.072       .  S
Cu142       N144   2.081       .  S
Cu142       N150   2.081       .  S
N143        N144   1.322       .  A
N143        C147   1.345       .  A
N144        C145   1.345       .  A
C145        C146   1.389       .  A
C145        H148   1.080       .  S
C146        C147   1.389       .  A
C146        C308   1.491       .  S
C147        H149   1.082       .  S
N150        N151   1.322       .  A
N150        C154   1.347       .  A
N151        C152   1.344       .  A
C152        C153   1.383       .  A
C152        H155   1.082       .  S
C153        C154   1.385       .  A
C153        C251   1.478       .  S
C154        H156   1.082       .  S
N157        N158   1.321       .  A
N157        C161   1.346       .  A
N157       Cu165   2.073       .  S
N158        C159   1.343       .  A
N158       Cu164   2.068       .  S
C159        C160   1.383       .  A
C159        H162   1.082       .  S
C160        C161   1.385       .  A
C160        C212   1.477       .  S
C161        H163   1.082       .  S
Cu164       N167   2.069       .  S
Cu165       N175   2.074       .  S
Cu166       N168   2.095       .  S
Cu166       N174   2.095       .  S
N167        N168   1.321       .  A
N167        C171   1.343       .  A
N168        C169   1.349       .  A
C169        C170   1.392       .  A
C169        H172   1.082       .  S
C170        C171   1.387       .  A
C170        C227   1.493       .  S
C171        H173   1.081       .  S
N174        N175   1.324       .  A
N174        C178   1.348       .  A
N175        C176   1.345       .  A
C176        C177   1.382       .  A
C176        H179   1.082       .  S
C177        C178   1.387       .  A
C177        C260   1.481       .  S
C178        H180   1.082       .  S
C181        C182   1.405       .  A
C181        C186   1.403       .  A
C181        C236   1.484       .  S
C182        C183   1.407       .  A
C182        H187   1.084       .  S
C183        C184   1.407       .  A
C183        C299   1.489       .  S
C184        C185   1.406       .  A
C184        H188   1.083       .  S
C185        C186   1.406       .  A
C185        C332   1.488       .  S
C186        H189   1.084       .  S
C190        C191   1.407       .  A
C190        C195   1.404   1_545  A
C190        C275   1.488       .  S
C191        C192   1.407   1_545  A
C191        H196   1.083       .  S
C192        C193   1.404       .  A
C192        C476   1.486       .  S
C193        C194   1.399       .  A
C193        H197   1.084       .  S
C194        C195   1.400       .  A
C194        C203   1.473       .  S
C195        H198   1.083       .  S
C199        C200   1.406       .  A
C199        C204   1.398       .  A
C199        H209   1.083       .  S
C200        C201   1.411       .  A
C200        C205   1.485       .  S
C201        C202   1.400       .  A
C201        O206   1.372       .  S
C202        C203   1.402       .  A
C202        H207   1.084       .  S
C203        C204   1.405       .  A
C204        O208   1.372       .  S
C205        C210   1.410       .  A
C205        C214   1.405       .  A
O206        H222   0.992       .  S
O208        H219   0.992       .  S
C210        C211   1.398       .  A
C210        O215   1.372       .  S
C211        C212   1.403       .  A
C211        H216   1.084       .  S
C212        C213   1.409       .  A
C213        C214   1.400       .  A
C213        O217   1.371       .  S
C214        H218   1.083       .  S
O215        H220   0.992       .  S
O217        H221   0.992       .  S
C223        C224   1.400       .  A
C223        C228   1.401       .  A
C223        H233   1.084       .  S
C224        C225   1.406       .  A
C224        C229   1.483       .  S
C225        C226   1.404       .  A
C225        O230   1.371       .  S
C226        C227   1.408       .  A
C226        H231   1.083       .  S
C227        C228   1.416       .  A
C228        O232   1.371       .  S
C229        C234   1.408       .  A
C229        C238   1.403       .  A
O230        H246   0.992       .  S
O232        H243   0.992       .  S
C234        C235   1.402       .  A
C234        O239   1.372       .  S
C235        C236   1.404       .  A
C235        H240   1.084       .  S
C236        C237   1.410       .  A
C237        C238   1.403       .  A
C237        O241   1.371       .  S
C238        H242   1.084       .  S
O239        H244   0.991       .  S
O241        H245   0.992       .  S
C247        C248   1.408       .  A
C247        C252   1.403       .  A
C247        H257   1.082       .  S
C248        C249   1.413       .  A
C248        C253   1.495   1_655  S
C249        C250   1.400       .  A
C249        O254   1.371       .  S
C250        C251   1.401       .  A
C250        H255   1.084       .  S
C251        C252   1.407       .  A
C252        O256   1.372       .  S
C253        C258   1.413       .  A
C253        C262   1.408       .  A
O254        H270   0.991   1_655  S
O256        H267   0.992       .  S
C258        C259   1.404       .  A
C258        O263   1.372       .  S
C259        C260   1.403       .  A
C259        H264   1.084       .  S
C260        C261   1.407       .  A
C261        C262   1.401       .  A
C261        O265   1.371       .  S
C262        H266   1.083       .  S
O263        H268   0.992       .  S
O265        H269   0.992       .  S
C271        C272   1.401       .  A
C271        C276   1.401       .  A
C271        H281   1.084       .  S
C272        C273   1.405       .  A
C272        C277   1.477       .  S
C273        C274   1.399       .  A
C273        O278   1.372       .  S
C274        C275   1.406       .  A
C274        H279   1.083       .  S
C275        C276   1.414       .  A
C276        O280   1.372       .  S
C277        C282   1.406       .  A
C277        C286   1.401       .  A
O278        H294   0.991       .  S
O280        H291   0.991       .  S
C282        C283   1.400       .  A
C282        O287   1.371       .  S
C283        C284   1.406       .  A
C283        H288   1.083       .  S
C284        C285   1.411       .  A
C285        C286   1.400       .  A
C285        O289   1.371       .  S
C286        H290   1.084       .  S
O287        H292   0.993       .  S
O289        H293   0.992       .  S
C295        C296   1.401       .  A
C295        C300   1.400       .  A
C295        H305   1.084       .  S
C296        C297   1.406       .  A
C296        C301   1.479       .  S
C297        C298   1.402       .  A
C297        O302   1.372       .  S
C298        C299   1.407       .  A
C298        H303   1.083       .  S
C299        C300   1.413       .  A
C300        O304   1.371       .  S
C301        C306   1.404       .  A
C301        C310   1.400       .  A
O302        H318   0.992       .  S
O304        H315   0.991       .  S
C306        C307   1.400       .  A
C306        O311   1.372       .  S
C307        C308   1.408       .  A
C307        H312   1.082       .  S
C308        C309   1.415       .  A
C309        C310   1.402       .  A
C309        O313   1.370       .  S
C310        H314   1.084       .  S
O311        H316   0.992       .  S
O313        H317   0.992       .  S
C319        C320   1.404       .  A
C319        C324   1.400       .  A
C319        H329   1.083       .  S
C320        C321   1.409       .  A
C320        C325   1.486       .  S
C321        C322   1.401       .  A
C321        O326   1.371       .  S
C322        C323   1.405       .  A
C322        H327   1.083       .  S
C323        C324   1.410       .  A
C324        O328   1.372       .  S
C325        C330   1.409       .  A
C325        C334   1.404       .  A
O326        H342   0.992       .  S
O328        H339   0.992       .  S
C330        C331   1.400       .  A
C330        O335   1.372       .  S
C331        C332   1.405       .  A
C331        H336   1.083       .  S
C332        C333   1.412       .  A
C333        C334   1.402       .  A
C333        O337   1.371       .  S
C334        H338   1.084       .  S
O335        H340   0.992       .  S
O337        H341   0.991       .  S
C343        C344   1.402       .  A
C343        C348   1.400       .  A
C343        H353   1.084       .  S
C344        C345   1.408       .  A
C344        C349   1.482       .  S
C345        C346   1.404       .  A
C345        O350   1.372       .  S
C346        C347   1.406       .  A
C346        H351   1.083       .  S
C347        C348   1.409       .  A
C348        O352   1.371       .  S
C349        C354   1.406       .  A
C349        C358   1.403       .  A
O350        H366   0.993       .  S
O352        H363   0.991       .  S
C354        C355   1.400       .  A
C354        O359   1.371       .  S
C355        C356   1.407       .  A
C355        H360   1.083       .  S
C356        C357   1.411       .  A
C357        C358   1.404       .  A
C357        O361   1.372       .  S
C358        H362   1.084       .  S
O359        H364   0.992       .  S
O361        H365   0.993       .  S
C367        C368   1.404       .  A
C367        C372   1.401       .  A
C367        H377   1.083       .  S
C368        C369   1.409       .  A
C368        C373   1.488       .  S
C369        C370   1.401       .  A
C369        O374   1.372       .  S
C370        C371   1.407       .  A
C370        H375   1.083       .  S
C371        C372   1.413       .  A
C372        O376   1.371       .  S
C373        C378   1.407       .  A
C373        C382   1.404       .  A
O374        H390   0.992       .  S
O376        H387   0.992       .  S
C378        C379   1.400       .  A
C378        O383   1.372       .  S
C379        C380   1.408       .  A
C379        H384   1.082       .  S
C380        C381   1.415       .  A
C381        C382   1.404       .  A
C381        O385   1.370       .  S
C382        H386   1.084       .  S
O383        H388   0.992       .  S
O385        H389   0.992       .  S
C391        C392   1.398   1_554  A
C391        C396   1.400       .  A
C391        H401   1.084       .  S
C392        C393   1.405       .  A
C392        C397   1.479   1_545  S
C393        C394   1.399       .  A
C393        O398   1.372       .  S
C394        C395   1.410       .  A
C394        H399   1.080       .  S
C395        C396   1.419   1_556  A
C396        O400   1.369       .  S
C397        C402   1.407   1_556  A
C397        C406   1.401       .  A
O398        H414   0.991       .  S
O400        H411   0.992       .  S
C402        C403   1.402       .  A
C402        O407   1.372       .  S
C403        C404   1.406   1_554  A
C403        H408   1.083       .  S
C404        C405   1.410       .  A
C405        C406   1.399       .  A
C405        O409   1.371       .  S
C406        H410   1.084       .  S
O407        H412   0.992       .  S
O409        H413   0.992       .  S
C415        C416   1.399       .  A
C415        C420   1.397       .  A
C415        H425   1.084       .  S
C416        C417   1.406       .  A
C416        C421   1.477       .  S
C417        C418   1.403       .  A
C417        O422   1.372       .  S
C418        C419   1.407       .  A
C418        H423   1.083       .  S
C419        C420   1.413       .  A
C420        O424   1.371       .  S
C421        C426   1.405       .  A
C421        C430   1.402       .  A
O422        H438   0.992       .  S
O424        H435   0.991       .  S
C426        C427   1.399       .  A
C426        O431   1.372       .  S
C427        C428   1.407       .  A
C427        H432   1.083       .  S
C428        C429   1.412       .  A
C429        C430   1.401       .  A
C429        O433   1.371       .  S
C430        H434   1.084       .  S
O431        H436   0.991       .  S
O433        H437   0.992       .  S
C439        C440   1.401       .  A
C439        C444   1.401       .  A
C439        H449   1.084       .  S
C440        C441   1.405       .  A
C440        C445   1.477       .  S
C441        C442   1.401       .  A
C441        O446   1.371       .  S
C442        C443   1.407       .  A
C442        H447   1.083       .  S
C443        C444   1.412       .  A
C444        O448   1.371       .  S
C445        C450   1.403       .  A
C445        C454   1.400       .  A
O446        H462   0.992       .  S
O448        H459   0.992       .  S
C450        C451   1.401       .  A
C450        O455   1.371       .  S
C451        C452   1.409       .  A
C451        H456   1.082       .  S
C452        C453   1.416       .  A
C453        C454   1.401       .  A
C453        O457   1.370       .  S
C454        H458   1.084       .  S
O455        H460   0.992       .  S
O457        H461   0.992       .  S
C463        C464   1.403   1_545  A
C463        C468   1.399       .  A
C463        H473   1.083       .  S
C464        C465   1.408       .  A
C464        C469   1.481       .  S
C465        C466   1.399       .  A
C465        O470   1.372       .  S
C466        C467   1.405       .  A
C466        H471   1.084       .  S
C467        C468   1.410   1_565  A
C468        O472   1.372       .  S
C469        C474   1.407       .  A
C469        C478   1.403   1_565  A
O470        H486   0.992       .  S
O472        H483   0.992   1_545  S
C474        C475   1.399       .  A
C474        O479   1.372       .  S
C475        C476   1.406       .  A
C475        H480   1.083       .  S
C476        C477   1.412   1_565  A
C477        C478   1.399       .  A
C477        O481   1.371       .  S
C478        H482   1.084       .  S
O479        H484   0.992       .  S
O481        H485   0.991   1_545  S
C487        C488   1.403       .  A
C487        C492   1.399       .  A
C487        H497   1.083   1_455  S
C488        C489   1.410       .  A
C488        C493   1.485       .  S
C489        C490   1.400       .  A
C489        O494   1.372       .  S
C490        C491   1.404       .  A
C490        H495   1.084       .  S
C491        C492   1.410       .  A
C492        O496   1.372   1_455  S
C493        C498   1.409       .  A
C493        C502   1.404   1_455  A
O494        H510   0.992       .  S
O496        H507   0.992   1_655  S
C498        C499   1.400       .  A
C498        O503   1.372       .  S
C499        C500   1.405       .  A
C499        H504   1.084       .  S
C500        C501   1.410   1_455  A
C501        C502   1.401       .  A
C501        O505   1.372       .  S
C502        H506   1.084       .  S
O503        H508   0.992       .  S
O505        H509   0.992   1_655  S
C511        C512   1.401       .  A
C511        C516   1.400       .  A
C511        H521   1.084       .  S
C512        C513   1.404       .  A
C512        C517   1.478       .  S
C513        C514   1.401       .  A
C513        O518   1.372       .  S
C514        C515   1.409       .  A
C514        H519   1.082       .  S
C515        C516   1.413       .  A
C516        O520   1.371       .  S
C517        C522   1.407       .  A
C517        C526   1.402       .  A
O518        H534   0.992       .  S
O520        H531   0.992       .  S
C522        C523   1.400       .  A
C522        O527   1.372       .  S
C523        C524   1.404       .  A
C523        H528   1.084       .  S
C524        C525   1.410       .  A
C525        C526   1.401       .  A
C525        O529   1.372       .  S
C526        H530   1.084       .  S
O527        H532   0.991       .  S
O529        H533   0.992       .  S
C535        C536   1.400       .  A
C535        C540   1.402       .  A
C535        H545   1.084       .  S
C536        C537   1.404       .  A
C536        C541   1.477       .  S
C537        C538   1.399       .  A
C537        O542   1.372       .  S
C538        C539   1.407       .  A
C538        H543   1.082       .  S
C539        C540   1.415       .  A
C540        O544   1.371       .  S
C541        C546   1.406       .  A
C541        C550   1.401       .  A
O542        H558   0.991       .  S
O544        H555   0.992       .  S
C546        C547   1.402       .  A
C546        O551   1.371       .  S
C547        C548   1.405       .  A
C547        H552   1.084       .  S
C548        C549   1.410       .  A
C549        C550   1.399       .  A
C549        O553   1.371       .  S
C550        H554   1.084       .  S
O551        H556   0.992       .  S
O553        H557   0.992       .  S
C559        C560   1.405       .  A
C559        C564   1.399       .  A
C559        H569   1.083       .  S
C560        C561   1.413       .  A
C560        C565   1.489       .  S
C561        C562   1.401       .  A
C561        O566   1.372       .  S
C562        C563   1.402       .  A
C562        H567   1.084       .  S
C563        C564   1.407       .  A
C564        O568   1.372       .  S
C565        C570   1.412       .  A
C565        C574   1.405       .  A
O566        H582   0.992       .  S
O568        H579   0.992       .  S
C570        C571   1.402       .  A
C570        O575   1.373       .  S
C571        C572   1.401       .  A
C571        H576   1.084       .  S
C572        C573   1.407       .  A
C573        C574   1.399       .  A
C573        O577   1.372       .  S
C574        H578   1.083       .  S
O575        H580   0.992       .  S
O577        H581   0.992       .  S
C583        C584   1.402       .  A
C583        C588   1.401       .  A
C583        H593   1.084       .  S
C584        C585   1.406       .  A
C584        C589   1.482       .  S
C585        C586   1.400       .  A
C585        O590   1.372       .  S
C586        C587   1.407       .  A
C586        H591   1.082       .  S
C587        C588   1.414       .  A
C588        O592   1.370       .  S
C589        C594   1.407       .  A
C589        C598   1.403       .  A
O590        H606   0.992       .  S
O592        H603   0.992       .  S
C594        C595   1.399       .  A
C594        O599   1.372       .  S
C595        C596   1.405       .  A
C595        H600   1.083       .  S
C596        C597   1.413       .  A
C597        C598   1.401       .  A
C597        O601   1.372       .  S
C598        H602   1.084       .  S
O599        H604   0.992       .  S
O601        H605   0.991       .  S
C607        C608   1.403       .  A
C607        C612   1.398       .  A
C607        H617   1.084       .  S
C608        C609   1.408       .  A
C608        C613   1.482       .  S
C609        C610   1.402       .  A
C609        O614   1.372       .  S
C610        C611   1.405       .  A
C610        H615   1.084       .  S
C611        C612   1.410       .  A
C612        O616   1.372       .  S
C613        C618   1.405       .  A
C613        C622   1.402       .  A
O614        H630   0.992       .  S
O616        H627   0.992       .  S
C618        C619   1.398       .  A
C618        O623   1.372       .  S
C619        C620   1.407       .  A
C619        H624   1.081       .  S
C620        C621   1.417       .  A
C621        C622   1.404       .  A
C621        O625   1.370       .  S
C622        H626   1.084       .  S
O623        H628   0.991       .  S
O625        H629   0.991       .  S
