geometry optimzed in LAMMPS
_audit_creation_date              2020-12-01 
_audit_creation_method            'lammps2cif' 
_symmetry_space_group_name_H-M    'P1' 
_symmetry_Int_Tables_number       1 
_symmetry_cell_setting            triclinic 
loop_ 
_symmetry_equiv_pos_as_xyz 
  x,y,z 
_cell_length_a                    60.93613636 
_cell_length_b                    60.84582015471627 
_cell_length_c                    60.734069870266204 
_cell_angle_alpha                 89.84674496886376 
_cell_angle_beta                  89.78093173829939 
_cell_angle_gamma                 89.88207034117919 
loop_ 
_atom_site_label 
_atom_site_type_symbol 
_atom_site_fract_x 
_atom_site_fract_y 
_atom_site_fract_z 
_atom_site_charge 
C1          C  0.73943615  0.00087361  0.00005420     0.86300
C2          C  0.76426013  0.00423346  0.00324805    -0.53900
C3          C  0.77715075  0.99116642  0.99029402     0.09300
C4          C  0.76412548  0.97607905  0.97496000     0.20200
C5          C  0.73615233  0.00460768  0.97502795    -0.54600
C6          C  0.74927900  0.99179114  0.96207499     0.09400
C7          C  0.73579162  0.97597187  0.00326036    -0.54200
C8          C  0.74876528  0.96309093  0.99019627     0.09900
H9          H  0.77104075  0.01598997  0.01479176     0.14400
H10         H  0.77459776  0.96564889  0.96421299     0.00200
H11         H  0.72504600  0.01630210  0.96759957     0.14800
H12         H  0.72418459  0.96913953  0.01502592     0.14500
C13         C  0.74234603  0.72577972  0.73093624     0.86300
C14         C  0.74021699  0.75071168  0.72686130    -0.53900
C15         C  0.75282051  0.76334193  0.74038659     0.09300
C16         C  0.76674707  0.74996714  0.75657275     0.20200
C17         C  0.76735445  0.72145709  0.72864326    -0.54600
C18         C  0.78002605  0.73408069  0.74215883     0.09400
C19         C  0.73775565  0.72262837  0.75572942    -0.54200
C20         C  0.75034489  0.73546920  0.76904239     0.09900
H21         H  0.72990461  0.75767002  0.71406578     0.14400
H22         H  0.77699264  0.76029920  0.76749600     0.00200
H23         H  0.77493055  0.70986184  0.71750674     0.14800
H24         H  0.72544732  0.71140351  0.76215533     0.14500
C25         C  0.02077548  0.00005805  0.72447259     0.86300
C26         C  0.02432240  0.97489775  0.72253900    -0.53900
C27         C  0.01194443  0.96294547  0.73685933     0.09300
C28         C  0.99705701  0.97663261  0.75170465     0.20200
C29         C  0.99582981  0.00283925  0.72152143    -0.54600
C30         C  0.98345688  0.99081249  0.73593052     0.09400
C31         C  0.02498929  0.00498236  0.74905094    -0.54200
C32         C  0.01252320  0.99271104  0.76332257     0.09900
H33         H  0.03499327  0.96658984  0.71099713     0.14400
H34         H  0.98690631  0.96636099  0.76290680     0.00200
H35         H  0.98859341  0.01348568  0.70912555     0.14800
H36         H  0.03717357  0.01673053  0.75452138     0.14500
C37         C  0.24648261  0.22866593  0.73388047     0.86300
C38         C  0.27139445  0.22409172  0.73126517    -0.53900
C39         C  0.28439307  0.23705834  0.74406134     0.09300
C40         C  0.27157390  0.25313524  0.75855026     0.20200
C41         C  0.24249209  0.22586514  0.75890637    -0.54600
C42         C  0.25568139  0.23871364  0.77180704     0.09400
C43         C  0.24417150  0.25353015  0.72965934    -0.54200
C44         C  0.25713596  0.26624370  0.74270722     0.09900
H45         H  0.27861468  0.21131643  0.72126680     0.14400
H46         H  0.28224400  0.26366132  0.76887407     0.00200
H47         H  0.23021419  0.21483705  0.76569098     0.14800
H48         H  0.23311007  0.26046064  0.71748524     0.14500
Zn49       Zn  0.49157436  0.21528346  0.72629178     1.49700
Zn50       Zn  0.49230764  0.25135368  0.76553212     1.49400
Zn51       Zn  0.52957602  0.21452746  0.76241187     1.49100
Zn52       Zn  0.52748904  0.25361389  0.72690100     1.49500
O53         O  0.51014764  0.23362903  0.74523068    -1.84300
O54         O  0.45957347  0.22067910  0.73368191    -0.74900
O55         O  0.50009356  0.24507395  0.79730621    -0.74700
O56         O  0.52451315  0.18246294  0.75560616    -0.74200
O57         O  0.46037828  0.24472241  0.76114787    -0.74900
O58         O  0.49805743  0.18275174  0.73062576    -0.74500
O59         O  0.52519576  0.21878135  0.79509175    -0.75100
O60         O  0.55987689  0.24914382  0.73211455    -0.74500
O61         O  0.49571033  0.28409294  0.76004996    -0.75300
O62         O  0.56119126  0.22168338  0.75617102    -0.74600
O63         O  0.52011097  0.28529994  0.73306768    -0.75100
O64         O  0.52097902  0.24935161  0.69474636    -0.75000
O65         O  0.49605223  0.22274416  0.69389192    -0.74800
C66         C  0.44973515  0.23275244  0.74776652     0.77000
C67         C  0.51335336  0.23171769  0.80654002     0.77500
C68         C  0.51154894  0.17227694  0.74277915     0.76400
C69         C  0.57081064  0.23587868  0.74412536     0.76800
C70         C  0.50716517  0.29506943  0.74634429     0.77900
C71         C  0.50803232  0.23692541  0.68413050     0.77000
C72         C  0.51898861  0.49811128  0.72494230     0.86300
C73         C  0.49423868  0.50268612  0.72208927    -0.53900
C74         C  0.48106389  0.49138046  0.73636983     0.09300
C75         C  0.49364832  0.47617363  0.75204105     0.20200
C76         C  0.52363008  0.50233892  0.74957293    -0.54600
C77         C  0.51026403  0.49100835  0.76376473     0.09400
C78         C  0.52088153  0.47275812  0.72290078    -0.54200
C79         C  0.50762501  0.46140215  0.73715333     0.09900
H80         H  0.48773879  0.51408764  0.70995450     0.14400
H81         H  0.48274160  0.46686225  0.76338714     0.00200
H82         H  0.53673732  0.51298135  0.75516875     0.14800
H83         H  0.53150083  0.46407588  0.71158170     0.14500
C84         C  0.52905723  0.22795296  0.01116518     0.86300
C85         C  0.53063950  0.25289931  0.01500158    -0.53900
C86         C  0.51714196  0.26513432  0.00193739     0.09300
C87         C  0.50347231  0.25150715  0.98592795     0.20200
C88         C  0.50440551  0.22240476  0.01333585    -0.54600
C89         C  0.49091972  0.23509911  0.00052194     0.09400
C90         C  0.53338556  0.22506497  0.98617154    -0.54200
C91         C  0.52009403  0.23753401  0.97302234     0.09900
H92         H  0.54143365  0.26022349  0.02712084     0.14400
H93         H  0.49278814  0.26176119  0.97529532     0.00200
H94         H  0.49829490  0.20932871  0.02385318     0.14800
H95         H  0.54512149  0.21370106  0.97908689     0.14500
Zn96       Zn  0.77367249  0.75454994  0.97657041     1.49700
Zn97       Zn  0.73694457  0.75582013  0.01432300     1.49400
Zn98       Zn  0.73584759  0.71831843  0.97807159     1.49100
Zn99       Zn  0.77302933  0.71753465  0.01495460     1.49500
O100        O  0.75500551  0.73656683  0.99601856    -1.84300
O101        O  0.76880588  0.78715612  0.98181795    -0.74900
O102        O  0.70454380  0.74984406  0.01036420    -0.74700
O103        O  0.73987763  0.72454976  0.94594556    -0.74200
O104        O  0.74163815  0.78742976  0.00624599    -0.74900
O105        O  0.76682445  0.74891372  0.94445351    -0.74500
O106        O  0.70410185  0.72394463  0.98476959    -0.75100
O107        O  0.76665815  0.68520695  0.00955590    -0.74500
O108        O  0.74521398  0.75279535  0.04628030    -0.75300
O109        O  0.74235097  0.68626864  0.98238989    -0.74600
O110        O  0.76878444  0.72483064  0.04739454    -0.75100
O111        O  0.80517021  0.72214898  0.00773222    -0.75000
O112        O  0.80568238  0.74742526  0.98136515    -0.74800
C113        C  0.75488676  0.79755339  0.99358072     0.77000
C114        C  0.69403871  0.73696831  0.99769056     0.77500
C115        C  0.75272636  0.73681802  0.93490976     0.76400
C116        C  0.75477453  0.67552116  0.99533871     0.76800
C117        C  0.75779700  0.73991596  0.05697612     0.77900
C118        C  0.81573730  0.73420095  0.99417061     0.77000
C119        C  0.89684562  0.34492047  0.88121512     0.86300
C120        C  0.91000462  0.35945287  0.86535860    -0.53900
C121        C  0.89762672  0.37308875  0.85259579     0.09300
C122        C  0.87276263  0.37114099  0.85686156     0.20200
C123        C  0.88239712  0.36086816  0.89440398    -0.54600
C124        C  0.87006547  0.37484565  0.88186115     0.09400
C125        C  0.88046564  0.33286316  0.86620643    -0.54200
C126        C  0.86807412  0.34653162  0.85342464     0.09900
H127        H  0.92781644  0.35910439  0.86447449     0.14400
H128        H  0.86264367  0.38222545  0.84645179     0.00200
H129        H  0.88205660  0.36114740  0.91228721     0.14800
H130        H  0.87864773  0.31524028  0.86493358     0.14500
C131        C  0.99017507  0.47225668  0.75609152     0.86300
C132        C  0.01535769  0.47015445  0.75908210    -0.53900
C133        C  0.02732359  0.48323157  0.74520869     0.09300
C134        C  0.01320984  0.49692960  0.72943875     0.20200
C135        C  0.98565523  0.49703917  0.75841752    -0.54600
C136        C  0.99759236  0.50984461  0.74438510     0.09400
C137        C  0.98682506  0.46712311  0.73148364    -0.54200
C138        C  0.99873799  0.48017398  0.71758740     0.09900
H139        H  0.02351750  0.45948045  0.77071756     0.14400
H140        H  0.02281466  0.50749083  0.71802602     0.00200
H141        H  0.97417298  0.50386347  0.77030821     0.14800
H142        H  0.97627122  0.45403247  0.72564656     0.14500
C143        C  0.77336083  0.47221953  0.97725584     0.86300
C144        C  0.77713452  0.46947951  0.00241940    -0.53900
C145        C  0.76533794  0.48385863  0.01505493     0.09300
C146        C  0.75099604  0.49963313  0.00169714     0.20200
C147        C  0.74820905  0.47046724  0.97468697    -0.54600
C148        C  0.73638779  0.48487650  0.98744153     0.09400
C149        C  0.77863707  0.49665767  0.97294776    -0.54200
C150        C  0.76680562  0.51083190  0.98559876     0.09900
H151        H  0.78857188  0.45820797  0.01000878     0.14400
H152        H  0.74187577  0.51124636  0.01236524     0.00200
H153        H  0.74053863  0.45887066  0.96356825     0.14800
H154        H  0.79048794  0.50227388  0.96078618     0.14500
C155        C  0.24105495  0.01128413  0.51274526     0.86300
C156        C  0.23520792  0.01202399  0.48805168    -0.53900
C157        C  0.24725257  0.99796670  0.47529891     0.09300
C158        C  0.26439538  0.98479008  0.48818235     0.20200
C159        C  0.23934574  0.98676776  0.51925643    -0.54600
C160        C  0.25158721  0.97295435  0.50640422     0.09400
C161        C  0.26609894  0.01593532  0.51301869    -0.54200
C162        C  0.27818482  0.00196882  0.50017765     0.09900
H163        H  0.22258118  0.02267861  0.48129786     0.14400
H164        H  0.27422777  0.97360943  0.47762289     0.00200
H165        H  0.22928997  0.98089153  0.53283968     0.14800
H166        H  0.27402515  0.02900363  0.52194881     0.14500
C167        C  0.14243337  0.13579880  0.63991797     0.86300
C168        C  0.12696383  0.14820228  0.62436594    -0.53900
C169        C  0.11516475  0.13510598  0.61050628     0.09300
C170        C  0.12016188  0.11029519  0.61330477     0.20200
C171        C  0.12728019  0.11917952  0.65171102    -0.54600
C172        C  0.11587029  0.10572262  0.63791769     0.09400
C173        C  0.15669908  0.12145841  0.62481619    -0.54200
C174        C  0.14534040  0.10794750  0.61102753     0.09900
H175        H  0.12541056  0.16598848  0.62442297     0.14400
H176        H  0.11072635  0.09943625  0.60214384     0.00200
H177        H  0.12523219  0.11764462  0.66931456     0.14800
H178        H  0.17451457  0.12180773  0.62525730     0.14500
C179        C  0.01945140  0.73081036  0.00741760     0.86300
C180        C  0.02454114  0.72765607  0.98269109    -0.53900
C181        C  0.01155261  0.73977774  0.96889811     0.09300
C182        C  0.99432212  0.75366012  0.98100723     0.20200
C183        C  0.02047698  0.75584473  0.01101399    -0.54600
C184        C  0.00734745  0.76778942  0.99721190     0.09400
C185        C  0.99461014  0.72533147  0.00920297    -0.54200
C186        C  0.98164076  0.73731103  0.99533288     0.09900
H187        H  0.03764423  0.71711773  0.97672738     0.14400
H188        H  0.98360967  0.76330355  0.96982790     0.00200
H189        H  0.03068457  0.76344595  0.02346369     0.14800
H190        H  0.98743854  0.71285852  0.01968658     0.14500
C191        C  0.24806766  0.50775059  0.01048133     0.86300
C192        C  0.24738441  0.48259435  0.01403670    -0.53900
C193        C  0.25887629  0.47069182  0.99872878     0.09300
C194        C  0.27014464  0.48510758  0.98123614     0.20200
C195        C  0.27300459  0.51258238  0.01001720    -0.54600
C196        C  0.28447000  0.50081170  0.99463168     0.09400
C197        C  0.24047270  0.51138515  0.98658219    -0.54200
C198        C  0.25196231  0.49952082  0.97139137     0.09900
H199        H  0.23874358  0.47490529  0.02763859     0.14400
H200        H  0.27955782  0.47560968  0.96880481     0.00200
H201        H  0.28134006  0.52320526  0.02155973     0.14800
H202        H  0.22726439  0.52251216  0.98207996     0.14500
C203        C  0.24126725  0.72814884  0.23535042     0.86300
C204        C  0.26570574  0.72234669  0.23203174    -0.53900
C205        C  0.27971183  0.73456138  0.24449107     0.09300
C206        C  0.26819024  0.75142506  0.25915024     0.20200
C207        C  0.23733312  0.72630289  0.26039747    -0.54600
C208        C  0.25135480  0.73860745  0.27277626     0.09400
C209        C  0.24039653  0.75333332  0.23074332    -0.54200
C210        C  0.25471090  0.76537674  0.24318213     0.09900
H211        H  0.27139383  0.70992760  0.22052762     0.14400
H212        H  0.27962811  0.76100733  0.26949618     0.00200
H213        H  0.22439105  0.71635939  0.26764078     0.14800
H214        H  0.23006911  0.76133871  0.21871698     0.14500
C215        C  0.12277445  0.63681036  0.10289767     0.86300
C216        C  0.13656395  0.64875249  0.12023709    -0.53900
C217        C  0.14824214  0.63521228  0.13383314     0.09300
C218        C  0.14566983  0.61049576  0.12848112     0.20200
C219        C  0.13986352  0.62256002  0.09070331    -0.54600
C220        C  0.15149956  0.60836752  0.10374607     0.09400
C221        C  0.10894511  0.62021345  0.11601228    -0.54200
C222        C  0.12066948  0.60643220  0.12938878     0.09900
H223        H  0.13702290  0.66652252  0.12179544     0.14400
H224        H  0.15514164  0.59939033  0.13943766     0.00200
H225        H  0.14308795  0.62339227  0.07320700     0.14800
H226        H  0.09116303  0.61972525  0.11501569     0.14500
C227        C  0.51908075  0.72639450  0.50746872     0.86300
C228        C  0.52359168  0.75147661  0.50940098    -0.53900
C229        C  0.50955353  0.76435469  0.49742108     0.09300
C230        C  0.49246797  0.75124076  0.48455794     0.20200
C231        C  0.49464745  0.72407216  0.51382798    -0.54600
C232        C  0.48079805  0.73720847  0.50199257     0.09400
C233        C  0.51990039  0.72229385  0.48239983    -0.54200
C234        C  0.50576326  0.73508732  0.47052708     0.09900
H235        H  0.53682803  0.75884564  0.51854963     0.14400
H236        H  0.48120326  0.76165745  0.47468544     0.00200
H237        H  0.48888717  0.71320680  0.52682740     0.14800
H238        H  0.53085279  0.71046559  0.47470263     0.14500
Zn239      Zn  0.23587615  0.76560426  0.48121234     1.49700
Zn240      Zn  0.27275900  0.72807677  0.48060640     1.49400
Zn241      Zn  0.27265937  0.76405394  0.51825783     1.49100
Zn242      Zn  0.23497156  0.72674042  0.51768917     1.49500
O243        O  0.25388998  0.74604260  0.49951229    -1.84300
O244        O  0.24098138  0.75961139  0.44880162    -0.74900
O245        O  0.30485407  0.73209690  0.48759046    -0.74700
O246        O  0.26674198  0.79641932  0.51412066    -0.74200
O247        O  0.26802134  0.73505299  0.44857027    -0.74900
O248        O  0.24184934  0.79780455  0.48756467    -0.74500
O249        O  0.30495259  0.75790485  0.51321205    -0.75100
O250        O  0.24066233  0.73208088  0.55043158    -0.74500
O251        O  0.26568635  0.69603683  0.48419070    -0.75300
O252        O  0.26644532  0.75772307  0.54991146    -0.74600
O253        O  0.24013868  0.69426913  0.51024520    -0.75100
O254        O  0.20270794  0.73336082  0.51182471    -0.75000
O255        O  0.20377342  0.76062297  0.48740424    -0.74800
C256        C  0.25434855  0.74721790  0.43842630     0.77000
C257        C  0.31523334  0.74451468  0.50077311     0.77500
C258        C  0.25407772  0.80736510  0.50155968     0.76400
C259        C  0.25359194  0.74507087  0.56053568     0.76800
C260        C  0.25260285  0.68487282  0.49614470     0.77900
C261        C  0.19300229  0.74741174  0.49960885     0.77000
Zn262      Zn  0.27294281  0.47592911  0.76405842     1.49700
Zn263      Zn  0.23584000  0.47285669  0.72589528     1.49400
Zn264      Zn  0.23386280  0.51117878  0.76127671     1.49100
Zn265      Zn  0.27139326  0.51099059  0.72445576     1.49500
O266        O  0.25360865  0.49259672  0.74400150    -1.84300
O267        O  0.26872885  0.44311297  0.75921416    -0.74900
O268        O  0.20338919  0.47706872  0.73136898    -0.74700
O269        O  0.23885735  0.50715764  0.79355199    -0.74200
O270        O  0.24330486  0.44159182  0.73317982    -0.74900
O271        O  0.26572226  0.48280823  0.79639031    -0.74500
O272        O  0.20208899  0.50385380  0.75608969    -0.75100
O273        O  0.26517384  0.54316901  0.72932347    -0.74500
O274        O  0.24144888  0.47706676  0.69327508    -0.75300
O275        O  0.23885415  0.54313888  0.75467247    -0.74600
O276        O  0.26607682  0.50384096  0.69261058    -0.75100
O277        O  0.30359001  0.50611498  0.72962140    -0.75000
O278        O  0.30526323  0.48285494  0.75767446    -0.74800
C279        C  0.25643707  0.43204980  0.74640440     0.77000
C280        C  0.19253514  0.48982984  0.74395092     0.77500
C281        C  0.25160181  0.49556649  0.80535354     0.76400
C282        C  0.25191418  0.55342641  0.74189994     0.76800
C283        C  0.25414547  0.48992127  0.68265948     0.77900
C284        C  0.31479289  0.49483532  0.74321269     0.77000
Zn285      Zn  0.98803377  0.75556283  0.72466026     1.49700
Zn286      Zn  0.02626723  0.75515249  0.75978044     1.49400
Zn287      Zn  0.98849890  0.71931295  0.76235227     1.49100
Zn288      Zn  0.02517146  0.71719495  0.72352443     1.49500
O289        O  0.00701716  0.73659046  0.74239972    -1.84300
O290        O  0.99327863  0.78780495  0.73073251    -0.74900
O291        O  0.02260660  0.74986877  0.79211075    -0.74700
O292        O  0.95625195  0.72390358  0.75614425    -0.74200
O293        O  0.02098772  0.78714611  0.75435706    -0.74900
O294        O  0.95591596  0.74937866  0.72998812    -0.74500
O295        O  0.99426466  0.72701643  0.79429769    -0.75100
O296        O  0.01849811  0.68509796  0.73066888    -0.74500
O297        O  0.05744095  0.75007968  0.75214298    -0.75300
O298        O  0.99419616  0.68704095  0.75790533    -0.74600
O299        O  0.05820951  0.72301791  0.72771557    -0.75100
O300        O  0.01794226  0.72270242  0.69112442    -0.75000
O301        O  0.99366025  0.74991279  0.69262168    -0.74800
C302        C  0.00725557  0.79766900  0.74268219     0.77000
C303        C  0.00878239  0.73896263  0.80340546     0.77500
C304        C  0.94581605  0.73619954  0.74278539     0.76400
C305        C  0.00588539  0.67573657  0.74468144     0.76800
C306        C  0.06802812  0.73731368  0.73946258     0.77900
C307        C  0.00522367  0.73640941  0.68154601     0.77000
C308        C  0.27013975  0.75503829  0.76443010     0.86300
C309        C  0.27458203  0.75943118  0.73973066    -0.53900
C310        C  0.26098497  0.74825930  0.72597541     0.09300
C311        C  0.24443534  0.73353507  0.73770115     0.20200
C312        C  0.24535746  0.76007148  0.76755582    -0.54600
C313        C  0.23199626  0.74886304  0.75334629     0.09400
C314        C  0.27166355  0.72964073  0.76643711    -0.54200
C315        C  0.25808146  0.71861355  0.75255127     0.09900
H316        H  0.28727996  0.77041544  0.73367506     0.14400
H317        H  0.23379452  0.72429363  0.72615670     0.00200
H318        H  0.23912744  0.77182576  0.77946262     0.14800
H319        H  0.28228758  0.72056378  0.77738453     0.14500
Zn320      Zn  0.52139982  0.76368280  0.26247037     1.49700
Zn321      Zn  0.48654843  0.76297292  0.22348066     1.49400
Zn322      Zn  0.52441917  0.72668377  0.22436702     1.49100
Zn323      Zn  0.48574931  0.72583212  0.26045388     1.49500
O324        O  0.50466036  0.74471391  0.24268002    -1.84300
O325        O  0.51703154  0.79584059  0.25506347    -0.74900
O326        O  0.49179272  0.75581465  0.19173207    -0.74700
O327        O  0.55606404  0.73268863  0.23241536    -0.74200
O328        O  0.49383186  0.79481554  0.22698952    -0.74900
O329        O  0.55364199  0.75752211  0.25898106    -0.74500
O330        O  0.52043331  0.73318926  0.19169391    -0.75100
O331        O  0.49161752  0.69411330  0.25393682    -0.74500
O332        O  0.45433991  0.75873362  0.22918857    -0.75300
O333        O  0.51810884  0.69408574  0.22883449    -0.74600
O334        O  0.45402142  0.73123511  0.25332409    -0.75100
O335        O  0.49006622  0.73065781  0.29313412    -0.75000
O336        O  0.51360750  0.75835836  0.29452263    -0.74800
C337        C  0.50609472  0.80550064  0.24002727     0.77000
C338        C  0.50608463  0.74451220  0.18144813     0.77500
C339        C  0.56513558  0.74519428  0.24650970     0.76400
C340        C  0.50444791  0.68377481  0.24102556     0.76800
C341        C  0.44401005  0.74487559  0.24098953     0.77900
C342        C  0.50134446  0.74435227  0.30417039     0.77000
C343        C  0.36565799  0.88585306  0.88356121     0.86300
C344        C  0.38183137  0.87201279  0.89700575    -0.53900
C345        C  0.39482920  0.85798103  0.88506984     0.09300
C346        C  0.39004523  0.85912986  0.86002379     0.20200
C347        C  0.38014937  0.89747476  0.86622394    -0.54600
C348        C  0.39283308  0.88357662  0.85398958     0.09400
C349        C  0.35257972  0.86915360  0.87014302    -0.54200
C350        C  0.36507028  0.85485678  0.85813209     0.09900
H351        H  0.38238759  0.87306260  0.91483083     0.14400
H352        H  0.40032953  0.84828175  0.84960048     0.00200
H353        H  0.38085343  0.91500425  0.86338278     0.14800
H354        H  0.33475907  0.86863811  0.87023165     0.14500
C355        C  0.49549150  0.96832842  0.75270219     0.86300
C356        C  0.49295963  0.96705825  0.72732341    -0.53900
C357        C  0.50761455  0.97963193  0.71568738     0.09300
C358        C  0.52370001  0.99214831  0.73052927     0.20200
C359        C  0.51957970  0.96227352  0.75693817    -0.54600
C360        C  0.53421012  0.97466846  0.74547810     0.09400
C361        C  0.49394904  0.99326632  0.75731439    -0.54200
C362        C  0.50890510  0.00569462  0.74590200     0.09900
H363        H  0.48024671  0.95809179  0.71887325     0.14400
H364        H  0.53567360  0.00239884  0.72135215     0.00200
H365        H  0.52465422  0.94936969  0.76823423     0.14800
H366        H  0.48199701  0.00044284  0.76849916     0.14500
C367        C  0.49203856  0.75673582  0.97754056     0.86300
C368        C  0.51715292  0.75919331  0.97478429    -0.53900
C369        C  0.52909090  0.74647185  0.98886327     0.09300
C370        C  0.51514246  0.73142983  0.00345931     0.20200
C371        C  0.48844936  0.73176260  0.97386529    -0.54600
C372        C  0.50077216  0.71863947  0.98733740     0.09400
C373        C  0.48756719  0.76028075  0.00230239    -0.54200
C374        C  0.49945767  0.74678413  0.01576275     0.09900
H375        H  0.52493279  0.76989844  0.96277339     0.14400
H376        H  0.52500253  0.72075978  0.01453498     0.00200
H377        H  0.47832468  0.72485263  0.96099036     0.14800
H378        H  0.47586099  0.77222638  0.00857138     0.14500
C379        C  0.74150511  0.51018115  0.50679856     0.86300
C380        C  0.73773289  0.51575259  0.48233577    -0.53900
C381        C  0.74982670  0.50334087  0.46803833     0.09300
C382        C  0.76457273  0.48637081  0.47938487     0.20200
C383        C  0.73748335  0.48521156  0.50873947    -0.54600
C384        C  0.74944719  0.47282850  0.49429744     0.09400
C385        C  0.76679134  0.51224948  0.50969421    -0.54200
C386        C  0.77875592  0.49974693  0.49519970     0.09900
H387        H  0.72696634  0.52892945  0.47693044     0.14400
H388        H  0.77418476  0.47616322  0.46765988     0.00200
H389        H  0.72612739  0.47798568  0.52051158     0.14800
H390        H  0.77485078  0.52172524  0.52232455     0.14500
Zn391      Zn  0.77979198  0.48414185  0.22322716     1.49700
Zn392      Zn  0.78101131  0.52139758  0.25937074     1.49400
Zn393      Zn  0.74327512  0.52225538  0.22170946     1.49100
Zn394      Zn  0.74269599  0.48603199  0.26019186     1.49500
O395        O  0.76157404  0.50362982  0.24102723    -1.84300
O396        O  0.81193813  0.48912605  0.22800036    -0.74900
O397        O  0.77583204  0.55316110  0.25304504    -0.74700
O398        O  0.74854413  0.51476770  0.18919642    -0.74200
O399        O  0.81322591  0.51515320  0.25343074    -0.74900
O400        O  0.77473717  0.48938912  0.19129409    -0.74500
O401        O  0.75057463  0.55452101  0.22689820    -0.75100
O402        O  0.71095803  0.49315632  0.25532928    -0.74500
O403        O  0.77452541  0.51741636  0.29176589    -0.75300
O404        O  0.71071690  0.51818505  0.22877710    -0.74600
O405        O  0.74800529  0.49261768  0.29211137    -0.75100
O406        O  0.74679133  0.45362352  0.25459697    -0.75000
O407        O  0.77276394  0.45239542  0.22895917    -0.74800
C408        C  0.82284545  0.50208046  0.24015006     0.77000
C409        C  0.76363335  0.56416462  0.24013145     0.77500
C410        C  0.76204343  0.50153821  0.18001085     0.76400
C411        C  0.70052716  0.50614751  0.24266640     0.76800
C412        C  0.76065252  0.50574864  0.30225517     0.77900
C413        C  0.75906352  0.44274068  0.24154302     0.77000
C414        C  0.74094672  0.23964112  0.22341714     0.86300
C415        C  0.73731915  0.23628518  0.24827113    -0.53900
C416        C  0.75049873  0.24881902  0.26116623     0.09300
C417        C  0.76590845  0.26398901  0.24834400     0.20200
C418        C  0.73784888  0.26474700  0.21995757    -0.54600
C419        C  0.75088519  0.27735086  0.23316290     0.09400
C420        C  0.76587730  0.23626860  0.21969691    -0.54200
C421        C  0.77888435  0.24895329  0.23283928     0.09900
H422        H  0.72541672  0.22485158  0.25509656     0.14400
H423        H  0.77640171  0.27412220  0.25923714     0.00200
H424        H  0.72673054  0.27226345  0.20830653     0.14800
H425        H  0.77265430  0.22495022  0.20765740     0.14500
Zn426      Zn  0.77603089  0.00953971  0.71777410     1.49700
Zn427      Zn  0.74058438  0.97104423  0.71785269     1.49400
Zn428      Zn  0.77634662  0.97271841  0.75554919     1.49100
Zn429      Zn  0.73852012  0.00932359  0.75381407     1.49500
O430        O  0.75790151  0.99062751  0.73623676    -1.84300
O431        O  0.76917918  0.00514511  0.68560897    -0.74900
O432        O  0.74844825  0.93929637  0.72284993    -0.74700
O433        O  0.80828265  0.97815953  0.74930183    -0.74200
O434        O  0.74497133  0.97785178  0.68565400    -0.74900
O435        O  0.80790532  0.00301601  0.72250186    -0.74500
O436        O  0.77095746  0.94028589  0.75130026    -0.75100
O437        O  0.74525221  0.00592490  0.78586372    -0.74500
O438        O  0.70859505  0.97361594  0.72568420    -0.75300
O439        O  0.77094786  0.98014006  0.78733841    -0.74600
O440        O  0.70704790  0.00069046  0.75012368    -0.75100
O441        O  0.74235792  0.04154496  0.74713071    -0.75000
O442        O  0.77157226  0.04149261  0.72516832    -0.74800
C443        C  0.75672730  0.99185347  0.67539448     0.77000
C444        C  0.76002525  0.92942985  0.73722852     0.77500
C445        C  0.81832770  0.99059674  0.73573340     0.76400
C446        C  0.75832225  0.99386211  0.79685776     0.76800
C447        C  0.69776325  0.98577150  0.73887470     0.77900
C448        C  0.75721127  0.05173726  0.73646304     0.77000
C449        C  0.77374171  0.25470163  0.75266353     0.86300
C450        C  0.77765711  0.22995695  0.75664379    -0.53900
C451        C  0.76438145  0.21664762  0.74451580     0.09300
C452        C  0.74855298  0.22916721  0.72930373     0.20200
C453        C  0.77681351  0.25703403  0.72739108    -0.54600
C454        C  0.76313222  0.24417699  0.71511964     0.09400
C455        C  0.74900767  0.25824451  0.75654203    -0.54200
C456        C  0.73587482  0.24496986  0.74427178     0.09900
H457        H  0.79016609  0.22350127  0.76759128     0.14400
H458        H  0.73755215  0.21812343  0.71996858     0.00200
H459        H  0.78928208  0.26702852  0.71960901     0.14800
H460        H  0.74247415  0.27059815  0.76767299     0.14500
Zn461      Zn  0.77084607  0.26542125  0.46964277     1.49700
Zn462      Zn  0.73292402  0.26359226  0.50689372     1.49400
Zn463      Zn  0.73387980  0.22741111  0.46877139     1.49100
Zn464      Zn  0.77087708  0.22715264  0.50543718     1.49500
O465        O  0.75207254  0.24603130  0.48761944    -1.84300
O466        O  0.76440446  0.29741060  0.47634772    -0.74900
O467        O  0.70071405  0.25682988  0.50158521    -0.74700
O468        O  0.73950681  0.23445767  0.43689890    -0.74200
O469        O  0.73735181  0.29608713  0.50095156    -0.74900
O470        O  0.76478834  0.26064379  0.43732805    -0.74500
O471        O  0.70156459  0.23245216  0.47443982    -0.75100
O472        O  0.76759387  0.19517151  0.49758018    -0.74500
O473        O  0.73980020  0.25775111  0.53909160    -0.75300
O474        O  0.74077012  0.19507294  0.47292246    -0.74600
O475        O  0.76496377  0.23149012  0.53755743    -0.75100
O476        O  0.80253243  0.23423096  0.50101969    -0.75000
O477        O  0.80343307  0.25983774  0.47498261    -0.74800
C478        C  0.75043088  0.30701826  0.48871519     0.77000
C479        C  0.69087110  0.24451960  0.48783851     0.77500
C480        C  0.75200821  0.24791686  0.42681519     0.76400
C481        C  0.75503747  0.18495090  0.48442272     0.76800
C482        C  0.75282834  0.24439405  0.54868452     0.77900
C483        C  0.81322985  0.24700291  0.48837245     0.77000
C484        C  0.89816016  0.88577954  0.35518413     0.86300
C485        C  0.88203257  0.87118182  0.34236207    -0.53900
C486        C  0.86980782  0.85742300  0.35524793     0.09300
C487        C  0.87436549  0.85966745  0.38007746     0.20200
C488        C  0.88328320  0.89780770  0.37171855    -0.54600
C489        C  0.87049655  0.88447251  0.38451301     0.09400
C490        C  0.91161090  0.86990949  0.36928299    -0.54200
C491        C  0.89954625  0.85580677  0.38201941     0.09900
H492        H  0.88022327  0.87180540  0.32458668     0.14400
H493        H  0.86416203  0.84853310  0.39036622     0.00200
H494        H  0.88116791  0.91544424  0.37228024     0.14800
H495        H  0.92942943  0.86988374  0.36903416     0.14500
C496        C  0.76640663  0.98100839  0.47182743     0.86300
C497        C  0.77157618  0.00556116  0.46749501    -0.53900
C498        C  0.76013821  0.01979591  0.48066299     0.09300
C499        C  0.74385808  0.00834783  0.49619677     0.20200
C500        C  0.76942924  0.97773139  0.49673938    -0.54600
C501        C  0.75773059  0.99203044  0.50951268     0.09400
C502        C  0.74124786  0.97977868  0.46846635    -0.54200
C503        C  0.72957956  0.99411559  0.48125518     0.09900
H504        H  0.78330757  0.01120059  0.45524558     0.14400
H505        H  0.73414263  0.01988475  0.50648631     0.00200
H506        H  0.77955322  0.96471682  0.50358680     0.14800
H507        H  0.73306710  0.96925717  0.45673044     0.14500
C508        C  0.98966481  0.75143522  0.47772251     0.86300
C509        C  0.98811720  0.72615371  0.47471309    -0.53900
C510        C  0.00188358  0.71432522  0.48799453     0.09300
C511        C  0.01575063  0.72866741  0.50328393     0.20200
C512        C  0.98540674  0.75461607  0.50261551    -0.54600
C513        C  0.99918783  0.74285224  0.51580662     0.09400
C514        C  0.01432241  0.75650462  0.47451247    -0.54200
C515        C  0.02790377  0.74465227  0.48798303     0.09900
H516        H  0.97666496  0.71781890  0.46409618     0.14400
H517        H  0.02684021  0.71911574  0.51421357     0.00200
H518        H  0.97261126  0.76518251  0.50922243     0.14800
H519        H  0.02039439  0.76876877  0.46299896     0.14500
C520        C  0.76800475  0.76761517  0.25970282     0.86300
C521        C  0.74317057  0.77031233  0.26393800    -0.53900
C522        C  0.73035536  0.75721686  0.25107523     0.09300
C523        C  0.74329423  0.74268375  0.23510943     0.20200
C524        C  0.77239656  0.74276639  0.26229694    -0.54600
C525        C  0.75954543  0.72986530  0.24933618     0.09400
C526        C  0.77047580  0.77175085  0.23449777    -0.54200
C527        C  0.75743261  0.75868368  0.22173471     0.09900
H528        H  0.73633372  0.78143773  0.27613331     0.14400
H529        H  0.73281999  0.73173324  0.22504789     0.00200
H530        H  0.78485367  0.73601441  0.27313994     0.14800
H531        H  0.78124215  0.78365162  0.22688624     0.14500
C532        C  0.27074858  0.48196585  0.47871416     0.86300
C533        C  0.27365027  0.50694627  0.47565312    -0.53900
C534        C  0.25994397  0.51935820  0.48836543     0.09300
C535        C  0.24463415  0.50589817  0.50323083     0.20200
C536        C  0.27323368  0.47799061  0.50368920    -0.54600
C537        C  0.25964637  0.49054556  0.51651155     0.09400
C538        C  0.24587722  0.47804194  0.47470088    -0.54200
C539        C  0.23232644  0.49049513  0.48768115     0.09900
H540        H  0.28535528  0.51416633  0.46422289     0.14400
H541        H  0.23364884  0.51611976  0.51366685     0.00200
H542        H  0.28486048  0.46633743  0.51057979     0.14800
H543        H  0.23907069  0.46646903  0.46315023     0.14500
Zn544      Zn  0.49186889  0.51072073  0.01088029     1.49700
Zn545      Zn  0.52863984  0.47411774  0.01108247     1.49400
Zn546      Zn  0.49166812  0.47257411  0.97382636     1.49100
Zn547      Zn  0.52837381  0.51049882  0.97292158     1.49500
O548        O  0.51006030  0.49196968  0.99203262    -1.84300
O549        O  0.49675025  0.50519785  0.04348859    -0.74900
O550        O  0.52319040  0.44212755  0.00631070    -0.74700
O551        O  0.45952724  0.47939194  0.97889794    -0.74200
O552        O  0.52243057  0.47929997  0.04316079    -0.74900
O553        O  0.46013504  0.50552910  0.00433811    -0.74500
O554        O  0.49689424  0.44022828  0.98130986    -0.75100
O555        O  0.52215013  0.50456756  0.94086578    -0.74500
O556        O  0.56055948  0.47978966  0.00522886    -0.75300
O557        O  0.49758869  0.47769294  0.94119257    -0.74600
O558        O  0.56060592  0.50429188  0.97802871    -0.75100
O559        O  0.52245166  0.54288899  0.97820043    -0.75000
O560        O  0.49737090  0.54267189  0.00473891    -0.74800
C561        C  0.50933064  0.49184515  0.05358804     0.77000
C562        C  0.51007493  0.43086895  0.99469178     0.77500
C563        C  0.44961114  0.49307863  0.99131898     0.76400
C564        C  0.50973571  0.49121421  0.93068253     0.76800
C565        C  0.57080279  0.49176227  0.99139785     0.77900
C566        C  0.50965247  0.55308954  0.99134165     0.77000
C567        C  0.49808964  0.48039740  0.25800059     0.86300
C568        C  0.49246809  0.50510082  0.25841439    -0.53900
C569        C  0.50464204  0.51762107  0.24421382     0.09300
C570        C  0.52149081  0.50442030  0.23092798     0.20200
C571        C  0.49610500  0.47375499  0.23349652    -0.54600
C572        C  0.50831084  0.48642704  0.21941503     0.09400
C573        C  0.52322381  0.47966985  0.26226712    -0.54200
C574        C  0.53534198  0.49233394  0.24811190     0.09900
H575        H  0.48003901  0.51208321  0.26920156     0.14400
H576        H  0.53136224  0.51466798  0.21945671     0.00200
H577        H  0.48589027  0.46034941  0.22777952     0.14800
H578        H  0.53116145  0.47031670  0.27511739     0.14500
C579        C  0.36695810  0.36012326  0.35309393     0.86300
C580        C  0.38213342  0.37641351  0.34086266    -0.53900
C581        C  0.39589002  0.38791596  0.35424814     0.09300
C582        C  0.39337990  0.38213514  0.37898521     0.20200
C583        C  0.38272003  0.34569878  0.36648780    -0.54600
C584        C  0.39665139  0.35685004  0.38001277     0.09400
C585        C  0.35516485  0.37443005  0.37014786    -0.54200
C586        C  0.36867575  0.38567846  0.38399603     0.09900
H587        H  0.38258723  0.37898791  0.32324638     0.14400
H588        H  0.40453912  0.39147219  0.38991601     0.00200
H589        H  0.38232951  0.32787350  0.36573606     0.14800
H590        H  0.33739087  0.37550456  0.37123322     0.14500
C591        C  0.48719399  0.25756272  0.48125312     0.86300
C592        C  0.48213892  0.23257941  0.47952309    -0.53900
C593        C  0.49521129  0.21954732  0.49238832     0.09300
C594        C  0.51239682  0.23236593  0.50539558     0.20200
C595        C  0.48585950  0.26219134  0.50623169    -0.54600
C596        C  0.49929947  0.24922659  0.51878745     0.09400
C597        C  0.51187746  0.25888293  0.47550111    -0.54200
C598        C  0.52505285  0.24575184  0.48812736     0.09900
H599        H  0.46981608  0.22526801  0.46912110     0.14400
H600        H  0.52303619  0.22170987  0.51564322     0.00200
H601        H  0.47513344  0.27457236  0.51333939     0.14800
H602        H  0.51834814  0.26928866  0.46246526     0.14500
Zn603      Zn  0.48431870  0.97312264  0.50596884     1.49700
Zn604      Zn  0.48490635  0.01077670  0.46888416     1.49400
Zn605      Zn  0.52091938  0.01122547  0.50736140     1.49100
Zn606      Zn  0.52221868  0.97397115  0.47021882     1.49500
O607        O  0.50307309  0.99238673  0.48817125    -1.84300
O608        O  0.45235830  0.97860301  0.49970906    -0.74900
O609        O  0.48941557  0.04298665  0.47531967    -0.74700
O610        O  0.51509352  0.00407693  0.53957186    -0.74200
O611        O  0.45291315  0.00531239  0.47470504    -0.74900
O612        O  0.48873090  0.97910353  0.53821299    -0.74500
O613        O  0.51300566  0.04330845  0.50304717    -0.75100
O614        O  0.55368761  0.98182638  0.47496712    -0.74500
O615        O  0.49119185  0.00486457  0.43653900    -0.75300
O616        O  0.55353044  0.00781553  0.50045125    -0.74600
O617        O  0.51666887  0.97875365  0.43805253    -0.75100
O618        O  0.51834874  0.94165849  0.47680571    -0.75000
O619        O  0.49091745  0.94089867  0.50074646    -0.74800
C620        C  0.44244808  0.99220796  0.48726804     0.77000
C621        C  0.50037777  0.05341188  0.48972177     0.77500
C622        C  0.50145802  0.99138225  0.54926909     0.76400
C623        C  0.56389009  0.99549397  0.48695311     0.76800
C624        C  0.50439439  0.99161439  0.42703565     0.77900
C625        C  0.50508179  0.93089437  0.48893867     0.77000
C626        C  0.52051268  0.00838725  0.22425258     0.86300
C627        C  0.52170544  0.98399519  0.21717714    -0.53900
C628        C  0.50908062  0.97023258  0.22974006     0.09300
C629        C  0.49604315  0.98203786  0.24778616     0.20200
C630        C  0.49560301  0.01355126  0.22323938    -0.54600
C631        C  0.48296571  0.99979999  0.23574571     0.09400
C632        C  0.52587127  0.00826706  0.24903281    -0.54200
C633        C  0.51307892  0.99444129  0.26133628     0.09900
H634        H  0.53152827  0.97805249  0.20348767     0.14400
H635        H  0.48554335  0.97104307  0.25784898     0.00200
H636        H  0.48831645  0.02659941  0.21355010     0.14800
H637        H  0.53851860  0.01852997  0.25620086     0.14500
C638        C  0.02651719  0.50819517  0.22723231     0.86300
C639        C  0.02924262  0.51111759  0.25231324    -0.53900
C640        C  0.01572039  0.49808279  0.26473781     0.09300
C641        C  0.00070390  0.48334105  0.25108253     0.20200
C642        C  0.02937899  0.48322571  0.22318684    -0.54600
C643        C  0.01616185  0.47034601  0.23607805     0.09400
C644        C  0.00165544  0.51192566  0.22321188    -0.54200
C645        C  0.98833841  0.49903101  0.23585490     0.09900
H646        H  0.04056764  0.52280379  0.25950437     0.14400
H647        H  0.98970613  0.47269085  0.26108326     0.00200
H648        H  0.04100825  0.47632090  0.21151015     0.14800
H649        H  0.99470043  0.52290268  0.21104012     0.14500
Zn650      Zn  0.02324666  0.50445972  0.51110511     1.49700
Zn651      Zn  0.98652131  0.46636585  0.50852573     1.49400
Zn652      Zn  0.98700444  0.50538107  0.47343343     1.49100
Zn653      Zn  0.02461839  0.46856487  0.47263315     1.49500
O654        O  0.00537342  0.48621677  0.49149986    -1.84300
O655        O  0.01593297  0.49774476  0.54281434    -0.74900
O656        O  0.95433867  0.47177101  0.50217539    -0.74700
O657        O  0.99284874  0.53742926  0.47965571    -0.74200
O658        O  0.99079432  0.47143047  0.54088299    -0.74900
O659        O  0.01783559  0.53699314  0.50600589    -0.74500
O660        O  0.95480941  0.49988718  0.47889729    -0.75100
O661        O  0.01929539  0.47503828  0.44048067    -0.74500
O662        O  0.99399147  0.43444488  0.50281509    -0.75300
O663        O  0.99314313  0.50040181  0.44133075    -0.74600
O664        O  0.02068660  0.43612763  0.47808445    -0.75100
O665        O  0.05627547  0.47486324  0.47888370    -0.75000
O666        O  0.05570792  0.49878115  0.50629836    -0.74800
C667        C  0.00279183  0.48431171  0.55209260     0.77000
C668        C  0.94425531  0.48603842  0.49058435     0.77500
C669        C  0.00539902  0.54759170  0.49290337     0.76400
C670        C  0.00640439  0.48826851  0.43058784     0.76800
C671        C  0.00814358  0.42494244  0.49057711     0.77900
C672        C  0.06631917  0.48677811  0.49276577     0.77000
C673        C  0.01437104  0.22033485  0.50791872     0.86300
C674        C  0.02037000  0.24474246  0.51136087    -0.53900
C675        C  0.00901404  0.25906706  0.49824826     0.09300
C676        C  0.99245056  0.24778009  0.48310113     0.20200
C677        C  0.98907578  0.21971191  0.51133463    -0.54600
C678        C  0.97781810  0.23419161  0.49837173     0.09400
C679        C  0.01731412  0.21650375  0.48295701    -0.54200
C680        C  0.00582154  0.23091016  0.47009132     0.09900
H681        H  0.03294817  0.25006621  0.52276395     0.14400
H682        H  0.98306578  0.25928450  0.47245053     0.00200
H683        H  0.98029443  0.20916919  0.52265701     0.14800
H684        H  0.02737221  0.20342451  0.47611823     0.14500
C685        C  0.26588442  0.97831222  0.98324109     0.86300
C686        C  0.24079697  0.97590327  0.98037706    -0.53900
C687        C  0.22872254  0.98920943  0.99376761     0.09300
C688        C  0.24254866  0.00373001  0.00894376     0.20200
C689        C  0.26995890  0.00313306  0.97979774    -0.54600
C690        C  0.25774687  0.01635468  0.99328746     0.09400
C691        C  0.26961544  0.97439836  0.00800132    -0.54200
C692        C  0.25781583  0.98798850  0.02152821     0.09900
H693        H  0.23266312  0.96518304  0.96886763     0.14400
H694        H  0.23260806  0.01476386  0.01958372     0.00200
H695        H  0.28200410  0.00954650  0.96826748     0.14800
H696        H  0.28079810  0.96193041  0.01415981     0.14500
Zn697      Zn  0.98461732  0.97574185  0.97179119     1.49700
Zn698      Zn  0.02045835  0.97684664  0.01030636     1.49400
Zn699      Zn  0.02191845  0.01261892  0.97218613     1.49100
Zn700      Zn  0.98375626  0.01371246  0.00815332     1.49500
O701        O  0.00262086  0.99463351  0.99052499    -1.84300
O702        O  0.99002628  0.94354397  0.97886645    -0.74900
O703        O  0.05256504  0.98191229  0.00514940    -0.74700
O704        O  0.01708244  0.00661657  0.94019784    -0.74200
O705        O  0.01487851  0.94480706  0.00540506    -0.74900
O706        O  0.99154716  0.98073868  0.93950716    -0.74500
O707        O  0.05374096  0.00679598  0.97846900    -0.75100
O708        O  0.98995383  0.04538264  0.00200255    -0.74500
O709        O  0.01411091  0.98362556  0.04211408    -0.75300
O710        O  0.01654313  0.04467036  0.97710247    -0.74600
O711        O  0.98828504  0.00913460  0.04039724    -0.75100
O712        O  0.95196511  0.00830175  0.00209786    -0.75000
O713        O  0.95239241  0.98240278  0.97635833    -0.74800
C714        C  0.00255893  0.93386514  0.99262466     0.77000
C715        C  0.06340179  0.99404489  0.99196157     0.77500
C716        C  0.00471210  0.99365288  0.92953076     0.76400
C717        C  0.00339673  0.05531810  0.98943571     0.76800
C718        C  0.00088198  0.99681769  0.05158977     0.77900
C719        C  0.94200533  0.99558035  0.98892105     0.77000
C720        C  0.99591478  0.97990669  0.25540045     0.86300
C721        C  0.99434617  0.00465567  0.26066301    -0.53900
C722        C  0.00648283  0.01773894  0.24693019     0.09300
C723        C  0.01913072  0.00495200  0.22922102     0.20200
C724        C  0.98962767  0.97817310  0.23093886    -0.54600
C725        C  0.00175356  0.99130663  0.21726695     0.09400
C726        C  0.02086830  0.97511802  0.25564724    -0.54200
C727        C  0.03286647  0.98817846  0.24194192     0.09900
H728        H  0.98449217  0.01121629  0.27406435     0.14400
H729        H  0.02897621  0.01557836  0.21810243     0.00200
H730        H  0.97645740  0.96773506  0.22510771     0.14800
H731        H  0.02908416  0.96293183  0.26559705     0.14500
C732        C  0.00280970  0.25846745  0.97853334     0.86300
C733        C  0.99862958  0.26117124  0.00347911    -0.53900
C734        C  0.01130757  0.24787865  0.01656546     0.09300
C735        C  0.02714576  0.23323043  0.00333957     0.20200
C736        C  0.02774702  0.26248188  0.97599301    -0.54600
C737        C  0.04023357  0.24918671  0.98889551     0.09400
C738        C  0.00005941  0.23375393  0.97420044    -0.54200
C739        C  0.01267839  0.22054832  0.98719844     0.09900
H740        H  0.98670595  0.27269204  0.01011039     0.14400
H741        H  0.03733346  0.22227373  0.01366310     0.00200
H742        H  0.03548860  0.27459591  0.96551428     0.14800
H743        H  0.98893575  0.22727685  0.96188923     0.14500
Zn744      Zn  0.24566917  0.22589346  0.01884566     1.49700
Zn745      Zn  0.28356432  0.26232278  0.01746406     1.49400
Zn746      Zn  0.28307347  0.22376650  0.98128812     1.49100
Zn747      Zn  0.24719736  0.26156585  0.97975142     1.49500
O748        O  0.26490612  0.24330923  0.99940311    -1.84300
O749        O  0.25129958  0.23278665  0.05104083    -0.74900
O750        O  0.31562468  0.25669542  0.01108802    -0.74700
O751        O  0.27606263  0.19201002  0.98815920    -0.74200
O752        O  0.27862702  0.25685882  0.05007371    -0.74900
O753        O  0.25055393  0.19329077  0.01422165    -0.74500
O754        O  0.31508988  0.22854529  0.98781358    -0.75100
O755        O  0.25238426  0.25447099  0.94774335    -0.74500
O756        O  0.27711345  0.29441836  0.01152625    -0.75300
O757        O  0.27843907  0.22888608  0.94837604    -0.74600
O758        O  0.25273766  0.29378488  0.98453985    -0.75100
O759        O  0.21537962  0.25693531  0.98565238    -0.75000
O760        O  0.21369831  0.23224260  0.01259976    -0.74800
C761        C  0.26509317  0.24503392  0.06086363     0.77000
C762        C  0.32555964  0.24237081  0.99945602     0.77500
C763        C  0.26304638  0.18228721  0.00147433     0.76400
C764        C  0.26536997  0.24140644  0.93780166     0.76800
C765        C  0.26459839  0.30441447  0.99801316     0.77900
C766        C  0.20436415  0.24515120  0.99897870     0.77000
Zn767      Zn  0.27608034  0.01184528  0.23052149     1.49700
Zn768      Zn  0.23807002  0.00924183  0.26587994     1.49400
Zn769      Zn  0.24203827  0.97243565  0.22863696     1.49100
Zn770      Zn  0.27668019  0.97376447  0.26816190     1.49500
O771        O  0.25834649  0.99171129  0.24836882    -1.84300
O772        O  0.26876201  0.04372248  0.23621911    -0.74900
O773        O  0.20709402  0.00303385  0.25708792    -0.74700
O774        O  0.24990593  0.97785331  0.19695091    -0.74200
O775        O  0.24338595  0.04176591  0.26235943    -0.74900
O776        O  0.27278454  0.00614510  0.19800769    -0.74500
O777        O  0.20938736  0.97680535  0.23190957    -0.75100
O778        O  0.27360727  0.94112345  0.26141857    -0.74500
O779        O  0.24072404  0.00221338  0.29801270    -0.75300
O780        O  0.24910371  0.94087578  0.23446112    -0.74600
O781        O  0.26805037  0.97825666  0.30034336    -0.75100
O782        O  0.30861835  0.98201710  0.26389951    -0.75000
O783        O  0.30773277  0.00772264  0.23789530    -0.74800
C784        C  0.25584330  0.05302665  0.24984437     0.77000
C785        C  0.19800149  0.98984952  0.24371863     0.77500
C786        C  0.26203381  0.99187009  0.18724167     0.76400
C787        C  0.26198774  0.93077203  0.24745100     0.76800
C788        C  0.25313368  0.98988707  0.30946943     0.77900
C789        C  0.31840877  0.99557682  0.25119904     0.77000
Zn790      Zn  0.98593079  0.26340774  0.26245456     1.49700
Zn791      Zn  0.98688853  0.22592566  0.22494912     1.49400
Zn792      Zn  0.02365800  0.26287867  0.22509918     1.49100
Zn793      Zn  0.02327903  0.22621284  0.26235159     1.49500
O794        O  0.00477690  0.24471765  0.24378839    -1.84300
O795        O  0.95377510  0.25757094  0.25586419    -0.74900
O796        O  0.99258981  0.23188095  0.19279951    -0.74700
O797        O  0.01873238  0.29468048  0.23146353    -0.74200
O798        O  0.95479046  0.23160659  0.23017777    -0.74900
O799        O  0.99221067  0.29583949  0.25667637    -0.74500
O800        O  0.01760011  0.25833911  0.19280161    -0.75100
O801        O  0.05518938  0.23441352  0.25949947    -0.74500
O802        O  0.99299454  0.19379336  0.23051879    -0.75300
O803        O  0.05566188  0.25732764  0.23097408    -0.74600
O804        O  0.01983303  0.19414429  0.25501441    -0.75100
O805        O  0.01501682  0.22942953  0.29406850    -0.75000
O806        O  0.99079691  0.25676350  0.29505274    -0.74800
C807        C  0.94405850  0.24451225  0.24272014     0.77000
C808        C  0.00485309  0.24540081  0.18253291     0.77500
C809        C  0.00588727  0.30547325  0.24396641     0.76400
C810        C  0.06559393  0.24645407  0.24584612     0.76800
C811        C  0.00678308  0.18364656  0.24255008     0.77900
C812        C  0.00240056  0.24222620  0.30477630     0.77000
C813        C  0.26847406  0.25635563  0.26520448     0.86300
C814        C  0.27225760  0.25985607  0.24034652    -0.53900
C815        C  0.25922247  0.24731612  0.22717995     0.09300
C816        C  0.24355403  0.23226063  0.24002421     0.20200
C817        C  0.24368036  0.25991846  0.26878395    -0.54600
C818        C  0.23054157  0.24772965  0.25529852     0.09400
C819        C  0.27153632  0.23126631  0.26847580    -0.54200
C820        C  0.25841525  0.21882772  0.25531779     0.09900
H821        H  0.28458112  0.27099026  0.23379792     0.14400
H822        H  0.23322890  0.22201412  0.22910248     0.00200
H823        H  0.23724653  0.27102955  0.28118459     0.14800
H824        H  0.28259596  0.22346719  0.27998354     0.14500
C825        C  0.65337966  0.09920239  0.10668500     0.86300
C826        C  0.63766876  0.08830480  0.12344433    -0.53900
C827        C  0.62500074  0.10269234  0.13502273     0.09300
C828        C  0.62918421  0.12697145  0.12922771     0.20200
C829        C  0.63855364  0.11392517  0.09255967    -0.54600
C830        C  0.62565041  0.12827716  0.10410868     0.09400
C831        C  0.66663590  0.11530359  0.12080948    -0.54200
C832        C  0.65419085  0.13008755  0.13244586     0.09900
H833        H  0.63635005  0.07086975  0.12662526     0.14400
H834        H  0.61876002  0.13859913  0.13867889     0.00200
H835        H  0.63863920  0.11317634  0.07470101     0.14800
H836        H  0.68444049  0.11504957  0.12148887     0.14500
C837        C  0.64048740  0.63192026  0.63566471     0.86300
C838        C  0.62596758  0.64379238  0.61884851    -0.53900
C839        C  0.61482722  0.63026551  0.60492911     0.09300
C840        C  0.61900741  0.60554508  0.60921824     0.20200
C841        C  0.62483171  0.61579935  0.64754006    -0.54600
C842        C  0.61365010  0.60205664  0.63386302     0.09400
C843        C  0.65524118  0.61670512  0.62184046    -0.54200
C844        C  0.64426834  0.60288478  0.60798887     0.09900
H845        H  0.62479010  0.66158936  0.61784818     0.14400
H846        H  0.60992847  0.59440575  0.59803909     0.00200
H847        H  0.62306697  0.61415748  0.66518782     0.14800
H848        H  0.67302745  0.61705331  0.62279898     0.14500
C849        C  0.08970409  0.24812484  0.24760229    -0.20000
C850        C  0.10316720  0.24948163  0.22872270     0.36200
C851        C  0.12600555  0.25065840  0.23106563    -0.26000
C852        C  0.13562459  0.25073546  0.25197075     0.02600
C853        C  0.12228637  0.24989438  0.27092858     0.27400
C854        C  0.09939395  0.24846302  0.26856088    -0.25100
N855        N  0.09377588  0.24891379  0.20714841    -0.82500
H856        H  0.13632634  0.25113864  0.21649609     0.13200
C857        C  0.15976440  0.25002429  0.25363352     0.02600
N858        N  0.13206925  0.25039924  0.29242202    -0.81100
H859        H  0.08906395  0.24770700  0.28310630     0.18100
C860        C  0.17152375  0.26937854  0.25740800    -0.25900
C861        C  0.19462331  0.26923601  0.25789528     0.36100
C862        C  0.20606812  0.24909409  0.25518991    -0.20000
C863        C  0.19399189  0.22982202  0.25142627    -0.25200
C864        C  0.17101496  0.23007570  0.25064798     0.27500
H865        H  0.16263960  0.28469809  0.25938706     0.13200
N866        N  0.20637566  0.28954792  0.26025999    -0.82500
H867        H  0.20238794  0.21438886  0.24904810     0.18100
N868        N  0.15899071  0.21018676  0.24659031    -0.81100
H869        H  0.19549889  0.30274262  0.26205916     0.33700
H870        H  0.21507201  0.29228288  0.24563691     0.38200
H871        H  0.16971390  0.19692102  0.24444936     0.33700
H872        H  0.14967504  0.20674191  0.26067099     0.30400
H873        H  0.11995145  0.24993176  0.30465002     0.33700
H874        H  0.14141953  0.23609159  0.29425762     0.30400
H875        H  0.09852794  0.26318597  0.19879188     0.38200
H876        H  0.10040587  0.23544173  0.19876994     0.33700
C877        C  0.25547546  0.07739735  0.25111614    -0.20000
C878        C  0.25179578  0.08855670  0.27122462     0.36200
C879        C  0.25260689  0.11164362  0.27165813    -0.26000
C880        C  0.25662593  0.12385663  0.25246422     0.02600
C881        C  0.26006517  0.11281457  0.23236385     0.27400
C882        C  0.25969980  0.08970816  0.23194334    -0.25100
N883        N  0.24810465  0.07650124  0.29129296    -0.82500
H884        H  0.25013729  0.12022294  0.28708771     0.13200
C885        C  0.25710759  0.14822732  0.25369536     0.02600
N886        N  0.26373734  0.12513446  0.21245775    -0.81100
H887        H  0.26245083  0.08125719  0.21649037     0.18100
C888        C  0.27636196  0.15951674  0.24786018    -0.25900
C889        C  0.27727968  0.18260511  0.24861160     0.36100
C890        C  0.25861971  0.19451293  0.25545340    -0.20000
C891        C  0.23959345  0.18323734  0.26178249    -0.25200
C892        C  0.23854944  0.16020325  0.26080327     0.27500
H893        H  0.29066267  0.15025514  0.24264397     0.13200
N894        N  0.29698049  0.19401612  0.24234831    -0.82500
H895        H  0.22556224  0.19242315  0.26766002     0.18100
N896        N  0.21867608  0.14892339  0.26676594    -0.81100
H897        H  0.29347264  0.20335436  0.22831612     0.33700
H898        H  0.30924612  0.18284382  0.23784292     0.38200
H899        H  0.20659370  0.16012816  0.27168619     0.33700
H900        H  0.21276879  0.14118827  0.25263151     0.30400
H901        H  0.26603178  0.11456129  0.19909916     0.33700
H902        H  0.24948169  0.13416043  0.20922996     0.30400
H903        H  0.23240566  0.06968347  0.29042310     0.38200
H904        H  0.24779808  0.08712601  0.30479611     0.33700
C905        C  0.26497916  0.24575024  0.08533229    -0.20000
C906        C  0.28457588  0.24665852  0.09775423     0.36200
C907        C  0.28338963  0.24665464  0.12093339    -0.26000
C908        C  0.26311302  0.24618844  0.13188346     0.02600
C909        C  0.24357859  0.24561497  0.11958954     0.27400
C910        C  0.24471455  0.24517907  0.09645541    -0.25100
N911        N  0.30559118  0.24676625  0.08691053    -0.82500
H912        H  0.29832714  0.24709276  0.13054885     0.13200
C913        C  0.26252399  0.24632060  0.15628288     0.02600
N914        N  0.22268037  0.24583331  0.13066302    -0.81100
H915        H  0.22966782  0.24466764  0.08701930     0.18100
C916        C  0.26160950  0.26644921  0.16743308    -0.25900
C917        C  0.26062717  0.26715038  0.19053772     0.36100
C918        C  0.26059104  0.24740563  0.20274470    -0.20000
C919        C  0.26149480  0.22726904  0.19153091    -0.25200
C920        C  0.26257468  0.22652482  0.16839862     0.27500
H921        H  0.26145680  0.28167491  0.15813325     0.13200
N922        N  0.25898676  0.28790222  0.20150295    -0.82500
H923        H  0.26157929  0.21206764  0.20086556     0.18100
N924        N  0.26403766  0.20580104  0.15716497    -0.81100
H925        H  0.24497632  0.29597757  0.19572460     0.33700
H926        H  0.27267303  0.29729913  0.19711380     0.38200
H927        H  0.26428288  0.19282727  0.16849173     0.33700
H928        H  0.24978769  0.20389142  0.14785807     0.30400
H929        H  0.20988937  0.24580040  0.11923696     0.33700
H930        H  0.22129305  0.23124660  0.13967462     0.30400
H931        H  0.30740337  0.26204734  0.07922955     0.38200
H932        H  0.31824247  0.24569135  0.09845001     0.33700
C933        C  0.00427271  0.24588044  0.15815510    -0.20000
C934        C  0.00740342  0.26558300  0.14615010     0.36200
C935        C  0.00701146  0.26505448  0.12302008    -0.26000
C936        C  0.00356916  0.24532913  0.11173041     0.02600
C937        C  0.00049130  0.22566497  0.12359041     0.27400
C938        C  0.00059939  0.22618082  0.14671965    -0.25100
N939        N  0.01078454  0.28604011  0.15742768    -0.82500
H940        H  0.00960326  0.28004267  0.11369096     0.13200
C941        C  0.00495238  0.24535686  0.08745343     0.02600
N942        N  0.99806071  0.20519119  0.11209743    -0.81100
H943        H  0.99836901  0.21102813  0.15586699     0.18100
C944        C  0.02558218  0.24317315  0.07762289    -0.25900
C945        C  0.02809018  0.24427007  0.05472584     0.36100
C946        C  0.00948867  0.24721245  0.04112470    -0.20000
C947        C  0.98870774  0.24928283  0.05116140    -0.25200
C948        C  0.98628339  0.24851566  0.07422508     0.27500
H949        H  0.03996751  0.24106002  0.08787232     0.13200
N950        N  0.04974503  0.24321053  0.04562656    -0.82500
H951        H  0.97427097  0.25131693  0.04100634     0.18100
N952        N  0.96507793  0.25138152  0.08427793    -0.81100
H953        H  0.05677919  0.22822795  0.05030661     0.33700
H954        H  0.05905046  0.25580116  0.05260525     0.38200
H955        H  0.95309663  0.25393277  0.07225549     0.33700
H956        H  0.96100139  0.23673416  0.09230605     0.30400
H957        H  0.99651289  0.19217119  0.12326182     0.33700
H958        H  0.98338235  0.20586705  0.10328755     0.30400
H959        H  0.99639474  0.28966066  0.16613511     0.38200
H960        H  0.01309149  0.29885811  0.14615762     0.33700
C961        C  0.06428805  0.25020162  0.98909791    -0.20000
C962        C  0.07685274  0.23797688  0.97399518     0.36200
C963        C  0.09972747  0.23723428  0.97640993    -0.26000
C964        C  0.11006130  0.24912454  0.99317198     0.02600
C965        C  0.09748918  0.26242151  0.00743551     0.27400
C966        C  0.07461523  0.26290765  0.00513922    -0.25100
N967        N  0.06629945  0.22635387  0.95640875    -0.82500
H968        H  0.10957338  0.22752398  0.96514797     0.13200
C969        C  0.13414242  0.24791829  0.99527139     0.02600
N970        N  0.10799862  0.27508932  0.02431762    -0.81100
H971        H  0.06474859  0.27296594  0.01605546     0.18100
C972        C  0.14653096  0.26689496  0.99146759    -0.25900
C973        C  0.16946217  0.26648422  0.99307558     0.36100
C974        C  0.18018383  0.24654129  0.99840043    -0.20000
C975        C  0.16768474  0.22761050  0.00257524    -0.25200
C976        C  0.14469658  0.22809890  0.00100480     0.27500
H977        H  0.13822078  0.28207104  0.98717508     0.13200
N978        N  0.18185864  0.28628379  0.98955342    -0.82500
H979        H  0.17589502  0.21232868  0.00666176     0.18100
N980        N  0.13200498  0.20861252  0.00513053    -0.81100
H981        H  0.17147579  0.29940479  0.98559647     0.33700
H982        H  0.18935590  0.29031266  0.00446032     0.38200
H983        H  0.14227490  0.19538328  0.00901461     0.33700
H984        H  0.12228044  0.21152726  0.01904504     0.30400
H985        H  0.09638453  0.28405690  0.03330376     0.33700
H986        H  0.11524442  0.26405352  0.03534547     0.30400
H987        H  0.05897068  0.23801173  0.94610520     0.38200
H988        H  0.07790282  0.21798143  0.94685214     0.33700
C989        C  0.00694052  0.04208880  0.24829544    -0.20000
C990        C  0.02686238  0.05379569  0.24642154     0.36200
C991        C  0.02643943  0.07685305  0.24569978    -0.26000
C992        C  0.00660486  0.08844528  0.24725894     0.02600
C993        C  0.98675977  0.07683137  0.24988598     0.27400
C994        C  0.98711598  0.05372680  0.25029715    -0.25100
N995        N  0.04746175  0.04226851  0.24552175    -0.82500
H996        H  0.04164919  0.08588280  0.24384410     0.13200
C997        C  0.00693434  0.11277633  0.24599858     0.02600
N998        N  0.96637456  0.08857266  0.25206067    -0.81100
H999        H  0.97183096  0.04475477  0.25170988     0.18100
C1000       C  0.99625011  0.12339728  0.22855757    -0.25900
C1001       C  0.99649565  0.14642900  0.22654948     0.36100
C1002       C  0.00733205  0.15916781  0.24269951    -0.20000
C1003       C  0.01836136  0.14831619  0.25992839    -0.25200
C1004       C  0.01824296  0.12530645  0.26174766     0.27500
H1005       H  0.98794050  0.11359517  0.21627971     0.13200
N1006       N  0.98596603  0.15677962  0.20807248    -0.82500
H1007       H  0.02676277  0.15781143  0.27236968     0.18100
N1008       N  0.02931169  0.11459050  0.27969201    -0.81100
H1009       H  0.97843307  0.14507374  0.19805987     0.33700
H1010       H  0.99823035  0.16412059  0.19848955     0.38200
H1011       H  0.03697373  0.12612810  0.28979596     0.33700
H1012       H  0.01739375  0.10680046  0.28935522     0.30400
H1013       H  0.95328528  0.07761001  0.25377170     0.33700
H1014       H  0.96706199  0.09759589  0.26667057     0.30400
H1015       H  0.04948809  0.03415315  0.26057423     0.38200
H1016       H  0.06052127  0.05329233  0.24400498     0.33700
C1017       C  0.17370226  0.98953023  0.24205666    -0.20000
C1018       C  0.16065377  0.00676521  0.25064186     0.36200
C1019       C  0.13778367  0.00546498  0.24949767    -0.26000
C1020       C  0.12749242  0.98727363  0.24004618     0.02600
C1021       C  0.14026641  0.97013402  0.23113575     0.27400
C1022       C  0.16328248  0.97150248  0.23207065    -0.25100
N1023       N  0.17044794  0.02574579  0.26043304    -0.82500
H1024       H  0.12793372  0.01872866  0.25620884     0.13200
C1025       C  0.10327905  0.98626925  0.24044106     0.02600
N1026       N  0.12981100  0.95127471  0.22160876    -0.81100
H1027       H  0.17306854  0.95816735  0.22545169     0.18100
C1028       C  0.09154832  0.98668685  0.22061896    -0.25900
C1029       C  0.06852305  0.98710201  0.22071252     0.36100
C1030       C  0.05711062  0.98713758  0.24092298    -0.20000
C1031       C  0.06890801  0.98637813  0.26070414    -0.25200
C1032       C  0.09188605  0.98584071  0.26066995     0.27500
H1033       H  0.10030572  0.98696121  0.20505609     0.13200
N1034       N  0.05681489  0.98705927  0.20030817    -0.82500
H1035       H  0.06015269  0.98654289  0.27626537     0.18100
N1036       N  0.10376315  0.98496668  0.28107030    -0.81100
H1037       H  0.06144108  0.97304409  0.19150158     0.33700
H1038       H  0.06166010  0.00085130  0.19122505     0.38200
H1039       H  0.09293999  0.98490365  0.29447070     0.33700
H1040       H  0.11221840  0.97000233  0.28152957     0.30400
H1041       H  0.14154511  0.94014021  0.21576915     0.33700
H1042       H  0.12118813  0.94322654  0.23416293     0.30400
H1043       H  0.16469150  0.02700415  0.27662373     0.38200
H1044       H  0.16516493  0.03963794  0.25176152     0.33700
C1045       C  0.00391381  0.07969475  0.98897876    -0.20000
C1046       C  0.99337794  0.09269023  0.00525455     0.36200
C1047       C  0.99507503  0.11564615  0.00414105    -0.26000
C1048       C  0.00663002  0.12590866  0.98703931     0.02600
C1049       C  0.01705955  0.11313908  0.97078423     0.27400
C1050       C  0.01570603  0.09018531  0.97198717    -0.25100
N1051       N  0.98134267  0.08272205  0.02306721    -0.82500
H1052       H  0.98732393  0.12566838  0.01669547     0.13200
C1053       C  0.00793943  0.15010780  0.98660135     0.02600
N1054       N  0.02888753  0.12356363  0.95309199    -0.81100
H1055       H  0.02378858  0.08047636  0.95940939     0.18100
C1056       C  0.02854149  0.16011037  0.98786213    -0.25900
C1057       C  0.03052000  0.18299276  0.98777419     0.36100
C1058       C  0.01151485  0.19622723  0.98653342    -0.20000
C1059       C  0.99084658  0.18613028  0.98527581    -0.25200
C1060       C  0.98886440  0.16316405  0.98527116     0.27500
H1061       H  0.04321063  0.15006380  0.98898737     0.13200
N1062       N  0.05192551  0.19256237  0.98851725    -0.82500
H1063       H  0.97616886  0.19619014  0.98464004     0.18100
N1064       N  0.96761918  0.15302404  0.98396591    -0.81100
H1065       H  0.05952419  0.18737799  0.00304244     0.33700
H1066       H  0.06104268  0.18634475  0.97530251     0.38200
H1067       H  0.95526626  0.16495364  0.98326300     0.33700
H1068       H  0.96697913  0.14434966  0.96914560     0.30400
H1069       H  0.03576847  0.11181682  0.94258378     0.33700
H1070       H  0.01755971  0.13249401  0.94375229     0.30400
H1071       H  0.96692730  0.07624255  0.01646232     0.38200
H1072       H  0.97634569  0.09457536  0.03448098     0.33700
C1073       C  0.00025295  0.99769821  0.07605629    -0.20000
C1074       C  0.98349913  0.00895205  0.08783345     0.36200
C1075       C  0.98329599  0.00811851  0.11094912    -0.26000
C1076       C  0.99957112  0.99674630  0.12253335     0.02600
C1077       C  0.01662189  0.98616382  0.11099436     0.27400
C1078       C  0.01669312  0.98657976  0.08791843    -0.25100
N1079       N  0.96653400  0.02085192  0.07647612    -0.82500
H1080       H  0.97031548  0.01629896  0.12003980     0.13200
C1081       C  0.99851701  0.99578161  0.14681564     0.02600
N1082       N  0.03381081  0.97507114  0.12281913    -0.81100
H1083       H  0.02977307  0.97819028  0.07919176     0.18100
C1084       C  0.99631198  0.97528544  0.15715422    -0.25900
C1085       C  0.99673539  0.97345019  0.18012924     0.36100
C1086       C  0.99897132  0.99250467  0.19306845    -0.20000
C1087       C  0.00042305  0.01311112  0.18267548    -0.25200
C1088       C  0.00044260  0.01493436  0.15963474     0.27500
H1089       H  0.99481216  0.96055200  0.14728276     0.13200
N1090       N  0.99591583  0.95213136  0.19013306    -0.82500
H1091       H  0.00195947  0.02782155  0.19256216     0.18100
N1092       N  0.00294488  0.03602577  0.14919800    -0.81100
H1093       H  0.00902693  0.94284153  0.18400813     0.33700
H1094       H  0.98132935  0.94455455  0.18529655     0.38200
H1095       H  0.00414855  0.04844346  0.16099727     0.33700
H1096       H  0.01784901  0.03586789  0.14060765     0.30400
H1097       H  0.04509103  0.96801969  0.11190231     0.33700
H1098       H  0.04237054  0.98692261  0.13177396     0.30400
H1099       H  0.97377789  0.03478385  0.06945834     0.38200
H1100       H  0.95474353  0.02669291  0.08757584     0.33700
C1101       C  0.26255877  0.15771020  0.00178598    -0.20000
C1102       C  0.24731843  0.14547460  0.01461658     0.36200
C1103       C  0.24717950  0.12236900  0.01317363    -0.26000
C1104       C  0.26205778  0.11115281  0.99956918     0.02600
C1105       C  0.27756553  0.12315600  0.98726105     0.27400
C1106       C  0.27758003  0.14620174  0.98838539    -0.25100
N1107       N  0.23185438  0.15636055  0.02884344    -0.82500
H1108       H  0.23531752  0.11300131  0.02263845     0.13200
C1109       C  0.26113028  0.08681301  0.99809541     0.02600
N1110       N  0.29330044  0.11183509  0.97368641    -0.81100
H1111       H  0.28949997  0.15518780  0.97864997     0.18100
C1112       C  0.25658190  0.07698176  0.97773460    -0.25900
C1113       C  0.25571340  0.05410455  0.97557188     0.36100
C1114       C  0.25963353  0.04061357  0.99412804    -0.20000
C1115       C  0.26390772  0.05044729  0.01454496    -0.25200
C1116       C  0.26480466  0.07342237  0.01671505     0.27500
H1117       H  0.25340849  0.08721754  0.96345957     0.13200
N1118       N  0.24982400  0.04513712  0.95463355    -0.82500
H1119       H  0.26666295  0.04011338  0.02884250     0.18100
N1120       N  0.26952984  0.08321306  0.03767934    -0.81100
H1121       H  0.26282526  0.03563914  0.94871861     0.33700
H1122       H  0.23609995  0.03505462  0.95678142     0.38200
H1123       H  0.27166600  0.07108254  0.04971414     0.33700
H1124       H  0.28451680  0.09143329  0.03620910     0.30400
H1125       H  0.30352745  0.12302684  0.96556217     0.33700
H1126       H  0.30335167  0.10254347  0.98408598     0.30400
H1127       H  0.24072653  0.16321034  0.04182030     0.38200
H1128       H  0.22108772  0.14501894  0.03599927     0.33700
C1129       C  0.20446533  0.99017009  0.99306295    -0.20000
C1130       C  0.19314281  0.99393175  0.97321729     0.36200
C1131       C  0.17015740  0.99503020  0.97334131    -0.26000
C1132       C  0.15829034  0.99259239  0.99303435     0.02600
C1133       C  0.16960143  0.98886991  0.01291385     0.27400
C1134       C  0.19256761  0.98746204  0.01263312    -0.25100
N1135       N  0.20492594  0.99695211  0.95298929    -0.82500
H1136       H  0.16152904  0.99769860  0.95799017     0.13200
C1137       C  0.13401552  0.99325180  0.99257499     0.02600
N1138       N  0.15770384  0.98659125  0.03328373    -0.81100
H1139       H  0.20114278  0.98383806  0.02768546     0.18100
C1140       C  0.12228092  0.97491236  0.00008014    -0.25900
C1141       C  0.09926995  0.97468752  0.99998783     0.36100
C1142       C  0.08770955  0.99334457  0.99224387    -0.20000
C1143       C  0.09955585  0.01164290  0.98452450    -0.25200
C1144       C  0.12260286  0.01183724  0.98474365     0.27500
H1145       H  0.13119018  0.96056985  0.00579558     0.13200
N1146       N  0.08770512  0.95542610  0.00735559    -0.82500
H1147       H  0.09080945  0.02601008  0.97863697     0.18100
N1148       N  0.13446639  0.03088443  0.97731066    -0.81100
H1149       H  0.09867457  0.94340929  0.01290024     0.33700
H1150       H  0.07969977  0.94876979  0.99371931     0.38200
H1151       H  0.12363055  0.04313046  0.97200416     0.33700
H1152       H  0.14285379  0.03728357  0.99083437     0.30400
H1153       H  0.16847820  0.98382192  0.04636530     0.33700
H1154       H  0.14988899  0.00157853  0.03642604     0.30400
H1155       H  0.19971363  0.98493686  0.94191114     0.38200
H1156       H  0.20067865  0.01231883  0.94653007     0.33700
C1157       C  0.26004707  0.98832554  0.04598900    -0.20000
C1158       C  0.28062458  0.98593919  0.05652595     0.36200
C1159       C  0.28161588  0.98593298  0.07967477    -0.26000
C1160       C  0.26265157  0.98900855  0.09237633     0.02600
C1161       C  0.24232441  0.99224841  0.08200989     0.27400
C1162       C  0.24126798  0.99196950  0.05896597    -0.25100
N1163       N  0.30049259  0.98437725  0.04378752    -0.82500
H1164       H  0.29726025  0.98395294  0.08787633     0.13200
C1165       C  0.26418751  0.98941897  0.11660455     0.02600
N1166       N  0.22287852  0.99600547  0.09497580    -0.81100
H1167       H  0.22561365  0.99454818  0.05125159     0.18100
C1168       C  0.26556018  0.00971535  0.12731366    -0.25900
C1169       C  0.26524125  0.01096462  0.15040971     0.36100
C1170       C  0.26351016  0.99142674  0.16293187    -0.20000
C1171       C  0.26254075  0.97107606  0.15207633    -0.25200
C1172       C  0.26292225  0.96988457  0.12898627     0.27500
H1173       H  0.26638474  0.02463830  0.11756404     0.13200
N1174       N  0.26599156  0.03199532  0.16111772    -0.82500
H1175       H  0.26141143  0.95606431  0.16165624     0.18100
N1176       N  0.26193863  0.94898952  0.11803493    -0.81100
H1177       H  0.26744273  0.04464458  0.14951828     0.33700
H1178       H  0.25094688  0.03435037  0.16911577     0.38200
H1179       H  0.26137065  0.93618818  0.12953746     0.33700
H1180       H  0.24719997  0.94840356  0.10929996     0.30400
H1181       H  0.20927102  0.99844667  0.08481637     0.33700
H1182       H  0.21977454  0.98172189  0.10406371     0.30400
H1183       H  0.30236322  0.99918809  0.03520892     0.38200
H1184       H  0.31413268  0.98284524  0.05406938     0.33700
C1185       C  0.00151578  0.24005170  0.32905617    -0.20000
C1186       C  0.00306583  0.21924022  0.33929751     0.36200
C1187       C  0.00342854  0.21768302  0.36232429    -0.26000
C1188       C  0.00242992  0.23656224  0.37537973     0.02600
C1189       C  0.00075079  0.25741974  0.36534082     0.27400
C1190       C  0.00008375  0.25895558  0.34221002    -0.25100
N1191       N  0.00392734  0.19959567  0.32636508    -0.82500
H1192       H  0.00459299  0.20165186  0.37006552     0.13200
C1193       C  0.00321970  0.23419146  0.39958288     0.02600
N1194       N  0.00034729  0.27691786  0.37865925    -0.81100
H1195       H  0.99908237  0.27496481  0.33441768     0.18100
C1196       C  0.02361118  0.23407491  0.41021766    -0.25900
C1197       C  0.02487882  0.23223724  0.43323145     0.36100
C1198       C  0.00548174  0.23049774  0.44574901    -0.20000
C1199       C  0.98511584  0.23025980  0.43504659    -0.25200
C1200       C  0.98378875  0.23192637  0.41201572     0.27500
H1201       H  0.03855678  0.23570975  0.40062745     0.13200
N1202       N  0.04578131  0.23298266  0.44389339    -0.82500
H1203       H  0.97020300  0.22889940  0.44473975     0.18100
N1204       N  0.96286778  0.23113321  0.40117906    -0.81100
H1205       H  0.05338933  0.24777715  0.43959503     0.33700
H1206       H  0.05537783  0.22009883  0.43776386     0.38200
H1207       H  0.95023744  0.22901241  0.41268882     0.33700
H1208       H  0.96018139  0.24637653  0.39368893     0.30400
H1209       H  0.99953980  0.29095444  0.36872361     0.33700
H1210       H  0.98593438  0.27668379  0.38803020     0.30400
H1211       H  0.01838263  0.19118817  0.33028026     0.38200
H1212       H  0.99066637  0.18967093  0.33091304     0.33700
C1213       C  0.01005970  0.40046147  0.49122266    -0.20000
C1214       C  0.02773578  0.38892001  0.48118696     0.36200
C1215       C  0.02886160  0.36588055  0.48309676    -0.26000
C1216       C  0.01266061  0.35401962  0.49441909     0.02600
C1217       C  0.99503347  0.36536222  0.50429761     0.27400
C1218       C  0.99402800  0.38838009  0.50277848    -0.25100
N1219       N  0.04464782  0.40045643  0.46932835    -0.82500
H1220       H  0.04238342  0.35704276  0.47555402     0.13200
C1221       C  0.01385193  0.32963903  0.49526257     0.02600
N1222       N  0.97804467  0.35339646  0.51560528    -0.81100
H1223       H  0.98041266  0.39688063  0.51051242     0.18100
C1224       C  0.01459049  0.31893954  0.51575566    -0.25900
C1225       C  0.01357309  0.29588525  0.51729751     0.36100
C1226       C  0.01228422  0.28328501  0.49783837    -0.20000
C1227       C  0.01248430  0.29402823  0.47733408    -0.25200
C1228       C  0.01303632  0.31705111  0.47583159     0.27500
H1229       H  0.01531860  0.32869968  0.53063234     0.13200
N1230       N  0.01308922  0.28537908  0.53852062    -0.82500
H1231       H  0.01177138  0.28440402  0.46236717     0.18100
N1232       N  0.01215757  0.32771258  0.45469065    -0.81100
H1233       H  0.01423024  0.29702523  0.55109106     0.33700
H1234       H  0.99780517  0.27781629  0.54033751     0.38200
H1235       H  0.01166400  0.31609159  0.44204780     0.33700
H1236       H  0.99740979  0.33648833  0.45392241     0.30400
H1237       H  0.96629248  0.36415100  0.52208410     0.33700
H1238       H  0.96999110  0.34370951  0.50397382     0.30400
H1239       H  0.03767552  0.40642294  0.45478492     0.38200
H1240       H  0.05713198  0.38966930  0.46447876     0.33700
C1241       C  0.01487374  0.49785348  0.28917299    -0.20000
C1242       C  0.03401639  0.49650030  0.30214143     0.36200
C1243       C  0.03200970  0.49458773  0.32515134    -0.26000
C1244       C  0.01131605  0.49349700  0.33532846     0.02600
C1245       C  0.99222401  0.49463942  0.32235490     0.27400
C1246       C  0.99421318  0.49705495  0.29946357    -0.25100
N1247       N  0.05533702  0.49646848  0.29193286    -0.82500
H1248       H  0.04663051  0.49377296  0.33522299     0.13200
C1249       C  0.00981696  0.49165686  0.35964237     0.02600
N1250       N  0.97091218  0.49303303  0.33247929    -0.81100
H1251       H  0.97949998  0.49808066  0.28954369     0.18100
C1252       C  0.99895032  0.50818945  0.37143270    -0.25900
C1253       C  0.99753701  0.50753829  0.39450103     0.36100
C1254       C  0.00709494  0.48970164  0.40612207    -0.20000
C1255       C  0.01785667  0.47305389  0.39414817    -0.25200
C1256       C  0.01922904  0.47380774  0.37104887     0.27500
H1257       H  0.99189903  0.52194813  0.36254534     0.13200
N1258       N  0.98679261  0.52517624  0.40603487    -0.82500
H1259       H  0.02512245  0.45927168  0.40280415     0.18100
N1260       N  0.02998375  0.45646241  0.35910143    -0.81100
H1261       H  0.98001903  0.53647807  0.39496925     0.33700
H1262       H  0.99881927  0.53366335  0.41480478     0.38200
H1263       H  0.03610900  0.44456989  0.36992429     0.33700
H1264       H  0.01813822  0.44868477  0.34946802     0.30400
H1265       H  0.95855606  0.49420272  0.32062998     0.33700
H1266       H  0.96963238  0.47736415  0.33947219     0.30400
H1267       H  0.06765470  0.49538098  0.30382660     0.38200
H1268       H  0.05656819  0.48227412  0.28233949     0.33700
C1269       C  0.01676383  0.44600780  0.23643429    -0.20000
C1270       C  0.01941725  0.43458906  0.25648471     0.36200
C1271       C  0.01809544  0.41162604  0.25690855    -0.26000
C1272       C  0.01394664  0.39981028  0.23765391     0.02600
C1273       C  0.01158184  0.41104244  0.21745884     0.27400
C1274       C  0.01312707  0.43414332  0.21701257    -0.25100
N1275       N  0.02363524  0.44626868  0.27646100    -0.82500
H1276       H  0.02006582  0.40296958  0.27240147     0.13200
C1277       C  0.01194280  0.37565377  0.23910010     0.02600
N1278       N  0.00726765  0.39895587  0.19765200    -0.81100
H1279       H  0.01088201  0.44294870  0.20165242     0.18100
C1280       C  0.99104887  0.36616369  0.24062200    -0.25900
C1281       C  0.98853343  0.34328457  0.24297821     0.36100
C1282       C  0.00737736  0.32973618  0.24349055    -0.20000
C1283       C  0.02827415  0.33937771  0.24191463    -0.25200
C1284       C  0.03074267  0.36222853  0.23985881     0.27500
H1285       H  0.97669511  0.37669557  0.24010935     0.13200
N1286       N  0.96697750  0.33377186  0.24392830    -0.82500
H1287       H  0.04274499  0.32899593  0.24227695     0.18100
N1288       N  0.05221841  0.37190384  0.23859444    -0.81100
H1289       H  0.95497333  0.34590314  0.24188252     0.33700
H1290       H  0.96473188  0.32745241  0.25979306     0.38200
H1291       H  0.06435227  0.35977270  0.23962026     0.33700
H1292       H  0.05382802  0.37916098  0.22304993     0.30400
H1293       H  0.00569353  0.40967168  0.18426156     0.33700
H1294       H  0.02097100  0.38909246  0.19443038     0.30400
H1295       H  0.01118786  0.44248571  0.28773638     0.38200
H1296       H  0.03849887  0.44061451  0.28291552     0.33700
C1297       C  0.53577325  0.02411285  0.21144545    -0.20000
C1298       C  0.55782744  0.01831308  0.20636196     0.36200
C1299       C  0.57123706  0.03312540  0.19464656    -0.26000
C1300       C  0.56401226  0.05437614  0.18926113     0.02600
C1301       C  0.54268920  0.06083807  0.19557115     0.27400
C1302       C  0.52889878  0.04576585  0.20648020    -0.25100
N1303       N  0.56676525  0.99752107  0.21326128    -0.82500
H1304       H  0.58765378  0.02811366  0.18990614     0.13200
C1305       C  0.57905835  0.06956754  0.17707933     0.02600
N1306       N  0.53525132  0.08288600  0.19132047    -0.81100
H1307       H  0.51305362  0.05160298  0.21187135     0.18100
C1308       C  0.57186346  0.07982022  0.15760524    -0.25900
C1309       C  0.58624204  0.09253109  0.14461312     0.36100
C1310       C  0.60836356  0.09453014  0.15087874    -0.20000
C1311       C  0.61542941  0.08497535  0.17064430    -0.25200
C1312       C  0.60089408  0.07297019  0.18408739     0.27500
H1313       H  0.55518928  0.07723295  0.15208060     0.13200
N1314       N  0.57882368  0.10232908  0.12441589    -0.82500
H1315       H  0.63253473  0.08631434  0.17524070     0.18100
N1316       N  0.60830655  0.06389679  0.20464145    -0.81100
H1317       H  0.56224132  0.09884892  0.12182732     0.33700
H1318       H  0.57997044  0.11937457  0.12617175     0.38200
H1319       H  0.62477660  0.06782386  0.20732908     0.33700
H1320       H  0.59929367  0.07143726  0.21721615     0.30400
H1321       H  0.51913277  0.08506940  0.19686743     0.33700
H1322       H  0.54504916  0.09352757  0.20050853     0.30400
H1323       H  0.56738648  0.99751496  0.23045554     0.38200
H1324       H  0.58293626  0.99566673  0.20775176     0.33700
C1325       C  0.45885643  0.00168354  0.23831159    -0.20000
C1326       C  0.44479110  0.00404873  0.22011563     0.36200
C1327       C  0.42200071  0.00409092  0.22340157    -0.26000
C1328       C  0.41299165  0.00174091  0.24459060     0.02600
C1329       C  0.42705014  0.99968403  0.26286733     0.27400
C1330       C  0.44983501  0.99961612  0.25951446    -0.25100
N1331       N  0.45350812  0.00549323  0.19823326    -0.82500
H1332       H  0.41126586  0.00541507  0.20927050     0.13200
C1333       C  0.38883103  0.00080652  0.24730784     0.02600
N1334       N  0.41811429  0.99766980  0.28472432    -0.81100
H1335       H  0.46063804  0.99798020  0.27356115     0.18100
C1336       C  0.37930390  0.98228584  0.25723719    -0.25900
C1337       C  0.35643405  0.98044117  0.25962835     0.36100
C1338       C  0.34273535  0.99735032  0.25134243    -0.20000
C1339       C  0.35245980  0.01603192  0.24168815    -0.25200
C1340       C  0.37531395  0.01799991  0.23974244     0.27500
H1341       H  0.38981103  0.96907763  0.26295359     0.13200
N1342       N  0.34722337  0.96116810  0.26979003    -0.82500
H1343       H  0.34218538  0.02922381  0.23554152     0.18100
N1344       N  0.38487483  0.03736276  0.23008196    -0.81100
H1345       H  0.35952097  0.94973875  0.27347078     0.33700
H1346       H  0.34054784  0.96596979  0.28491680     0.38200
H1347       H  0.37265943  0.04843082  0.22520496     0.33700
H1348       H  0.39398474  0.04520872  0.24229703     0.30400
H1349       H  0.43067706  0.99610645  0.29631057     0.33700
H1350       H  0.40985199  0.01230736  0.28832341     0.30400
H1351       H  0.44715472  0.99246743  0.18906699     0.38200
H1352       H  0.44793969  0.02017522  0.19120674     0.33700
C1353       C  0.50583514  0.99127465  0.40267676    -0.20000
C1354       C  0.52608686  0.98749378  0.39182167     0.36200
C1355       C  0.52686369  0.98740200  0.36871472    -0.26000
C1356       C  0.50793532  0.99107126  0.35627678     0.02600
C1357       C  0.48763987  0.99447022  0.36694600     0.27400
C1358       C  0.48681737  0.99473207  0.39010557    -0.25100
N1359       N  0.54588036  0.98427457  0.40425957    -0.82500
H1360       H  0.54237019  0.98481045  0.36030288     0.13200
C1361       C  0.50988612  0.99194930  0.33204185     0.02600
N1362       N  0.46795810  0.99721408  0.35423098    -0.81100
H1363       H  0.47125340  0.99737359  0.39838253     0.18100
C1364       C  0.50881350  0.97244293  0.31993059    -0.25900
C1365       C  0.51104008  0.97267283  0.29688191     0.36100
C1366       C  0.51379581  0.99297064  0.28577247    -0.20000
C1367       C  0.51553974  0.01237702  0.29810041    -0.25200
C1368       C  0.51377684  0.01203543  0.32116137     0.27500
H1369       H  0.50641597  0.95700557  0.32854287     0.13200
N1370       N  0.51082251  0.95237719  0.28480469    -0.82500
H1371       H  0.51766417  0.02795553  0.28969546     0.18100
N1372       N  0.51616454  0.03194019  0.33362643    -0.81100
H1373       H  0.50864696  0.93899827  0.29542232     0.33700
H1374       H  0.52625341  0.95045481  0.27746537     0.38200
H1375       H  0.51946115  0.04521840  0.32317062     0.33700
H1376       H  0.50113983  0.03531152  0.34125209     0.30400
H1377       H  0.45435245  0.99910610  0.36460056     0.33700
H1378       H  0.46936321  0.01181433  0.34524923     0.30400
H1379       H  0.54915065  0.99891148  0.41259976     0.38200
H1380       H  0.55924124  0.98147522  0.39377414     0.33700
C1381       C  0.49841052  0.07777436  0.49108821    -0.20000
C1382       C  0.47968068  0.08909601  0.48317347     0.36200
C1383       C  0.47901660  0.11218187  0.48404559    -0.26000
C1384       C  0.49640582  0.12424996  0.49295884     0.02600
C1385       C  0.51476238  0.11302582  0.50154188     0.27400
C1386       C  0.51554459  0.08993073  0.50058075    -0.25100
N1387       N  0.46125241  0.07718723  0.47457836    -0.82500
H1388       H  0.46477738  0.12087955  0.47783997     0.13200
C1389       C  0.49531258  0.14866303  0.49273122     0.02600
N1390       N  0.53268882  0.12515088  0.51084934    -0.81100
H1391       H  0.52985621  0.08142211  0.50686172     0.18100
C1392       C  0.49569455  0.16026643  0.51265452    -0.25900
C1393       C  0.49496681  0.18333371  0.51289726     0.36100
C1394       C  0.49396593  0.19512790  0.49288477    -0.20000
C1395       C  0.49308758  0.18349078  0.47298814    -0.25200
C1396       C  0.49387925  0.16038605  0.47269563     0.27500
H1397       H  0.49645510  0.15135413  0.52810858     0.13200
N1398       N  0.49476497  0.19468928  0.53353066    -0.82500
H1399       H  0.49255323  0.19247785  0.45757587     0.18100
N1400       N  0.49369323  0.14876175  0.45212078    -0.81100
H1401       H  0.50893997  0.19032357  0.54216148     0.33700
H1402       H  0.48119893  0.18927907  0.54261910     0.38200
H1403       H  0.49251136  0.15975922  0.43891901     0.33700
H1404       H  0.50880688  0.14075316  0.45048164     0.30400
H1405       H  0.54488420  0.11446059  0.51653531     0.33700
H1406       H  0.53976864  0.13449071  0.49822430     0.30400
H1407       H  0.45444735  0.06811265  0.48755161     0.38200
H1408       H  0.44901073  0.08799492  0.46922375     0.33700
C1409       C  0.41235182  0.34488170  0.39476313    -0.20000
C1410       C  0.42445668  0.32648102  0.38711554     0.36200
C1411       C  0.43652632  0.31361893  0.40208745    -0.26000
C1412       C  0.43688392  0.31850784  0.42462826     0.02600
C1413       C  0.42554968  0.33734213  0.43221544     0.27400
C1414       C  0.41357802  0.35045162  0.41716877    -0.25100
N1415       N  0.42423504  0.32066970  0.36418091    -0.82500
H1416       H  0.44553215  0.29941911  0.39618228     0.13200
C1417       C  0.44867375  0.30321448  0.43994501     0.02600
N1418       N  0.42562658  0.34265031  0.45525533    -0.81100
H1419       H  0.40424915  0.36440268  0.42315484     0.18100
C1420       C  0.46624254  0.31082221  0.45261436    -0.25900
C1421       C  0.47840302  0.29653305  0.46632904     0.36100
C1422       C  0.47314172  0.27373034  0.46735478    -0.20000
C1423       C  0.45495164  0.26648647  0.45496153    -0.25200
C1424       C  0.44285465  0.28084359  0.44135630     0.27500
H1425       H  0.47072348  0.32801500  0.45152765     0.13200
N1426       N  0.49656620  0.30511391  0.47866586    -0.82500
H1427       H  0.44962028  0.24967478  0.45572179     0.18100
N1428       N  0.42455558  0.27274815  0.42889272    -0.81100
H1429       H  0.49934014  0.32160542  0.47467744     0.33700
H1430       H  0.49220156  0.30489722  0.49529956     0.38200
H1431       H  0.42243301  0.25588578  0.43144547     0.33700
H1432       H  0.41039780  0.28046710  0.43486169     0.30400
H1433       H  0.41650070  0.35692520  0.45817756     0.33700
H1434       H  0.41765216  0.32991674  0.46364050     0.30400
H1435       H  0.43178176  0.33335923  0.35540931     0.38200
H1436       H  0.43360750  0.30653754  0.36135740     0.33700
C1437       C  0.35094410  0.34607309  0.33958498    -0.20000
C1438       C  0.33666734  0.33117756  0.35052362     0.36200
C1439       C  0.32283758  0.31739595  0.33841446    -0.26000
C1440       C  0.32287938  0.31778639  0.31538341     0.02600
C1441       C  0.33666879  0.33269360  0.30421489     0.27400
C1442       C  0.35038103  0.34675459  0.31634241    -0.25100
N1443       N  0.33637396  0.32973588  0.37408323    -0.82500
H1444       H  0.31215756  0.30605730  0.34709971     0.13200
C1445       C  0.30896854  0.30192932  0.30318953     0.02600
N1446       N  0.33705936  0.33313235  0.28053735    -0.81100
H1447       H  0.36084059  0.35769910  0.30718780     0.18100
C1448       C  0.29283952  0.30971365  0.28878365    -0.25900
C1449       C  0.27974953  0.29515413  0.27671193     0.36100
C1450       C  0.28249920  0.27209674  0.27903996    -0.20000
C1451       C  0.29869712  0.26446626  0.29377899    -0.25200
C1452       C  0.31197208  0.27909721  0.30568161     0.27500
H1453       H  0.29042124  0.32726333  0.28683199     0.13200
N1454       N  0.26368101  0.30392303  0.26190449    -0.82500
H1455       H  0.30166797  0.24718526  0.29602139     0.18100
N1456       N  0.32881433  0.27085318  0.32005556    -0.81100
H1457       H  0.27173248  0.31389287  0.25040169     0.33700
H1458       H  0.25287627  0.31379474  0.27094719     0.38200
H1459       H  0.32892030  0.25367250  0.32021045     0.33700
H1460       H  0.34395359  0.27578701  0.31358217     0.30400
H1461       H  0.34799323  0.34506296  0.27475759     0.33700
H1462       H  0.34309245  0.31796130  0.27515517     0.30400
H1463       H  0.34026887  0.31359579  0.37857389     0.38200
H1464       H  0.32042051  0.33308032  0.37953486     0.33700
C1465       C  0.48308481  0.46709513  0.27377331    -0.20000
C1466       C  0.46031414  0.46497807  0.26950230     0.36200
C1467       C  0.44670655  0.45285351  0.28387217    -0.26000
C1468       C  0.45487625  0.44341213  0.30334027     0.02600
C1469       C  0.47729819  0.44635276  0.30833329     0.27400
C1470       C  0.49106338  0.45782722  0.29355762    -0.25100
N1471       N  0.45078681  0.47529823  0.25057462    -0.82500
H1472       H  0.42957301  0.45079347  0.27967588     0.13200
C1473       C  0.44003595  0.43018717  0.31813485     0.02600
N1474       N  0.48599622  0.43804239  0.32871280    -0.81100
H1475       H  0.50787154  0.46002033  0.29837995     0.18100
C1476       C  0.44676535  0.40917394  0.32516840    -0.25900
C1477       C  0.43324935  0.39593208  0.33857020     0.36100
C1478       C  0.41221122  0.40341521  0.34462231    -0.20000
C1479       C  0.40541388  0.42442402  0.33788849    -0.25200
C1480       C  0.41920940  0.43803767  0.32502832     0.27500
H1481       H  0.46249581  0.40281541  0.31976334     0.13200
N1482       N  0.44044279  0.37447854  0.34533228    -0.82500
H1483       H  0.38908622  0.43001150  0.34230551     0.18100
N1484       N  0.41207090  0.45971113  0.31884251    -0.81100
H1485       H  0.45615944  0.37116644  0.33920583     0.33700
H1486       H  0.44173321  0.37461519  0.36249244     0.38200
H1487       H  0.39638362  0.46291610  0.32510679     0.33700
H1488       H  0.42266573  0.47096024  0.32624094     0.30400
H1489       H  0.50276417  0.44138924  0.32997854     0.33700
H1490       H  0.47823996  0.44649507  0.34153955     0.30400
H1491       H  0.44336120  0.46313638  0.24104128     0.38200
H1492       H  0.43854591  0.48609233  0.25598754     0.33700
C1493       C  0.50857377  0.49051633  0.07792584    -0.20000
C1494       C  0.50931413  0.46997401  0.08883076     0.36200
C1495       C  0.50897046  0.46924878  0.11195869    -0.26000
C1496       C  0.50790383  0.48857530  0.12436731     0.02600
C1497       C  0.50735223  0.50913079  0.11358410     0.27400
C1498       C  0.50739873  0.50988667  0.09040194    -0.25100
N1499       N  0.51006815  0.44991981  0.07637110    -0.82500
H1500       H  0.50945814  0.45354150  0.12040145     0.13200
C1501       C  0.50765672  0.48692482  0.14869214     0.02600
N1502       N  0.50744474  0.52909642  0.12620069    -0.81100
H1503       H  0.50704086  0.52563518  0.08203287     0.18100
C1504       C  0.52759866  0.48526071  0.15998037    -0.25900
C1505       C  0.52800928  0.48389525  0.18304203     0.36100
C1506       C  0.50819271  0.48431472  0.19507780    -0.20000
C1507       C  0.48818744  0.48504560  0.18371975    -0.25200
C1508       C  0.48772480  0.48635361  0.16056797     0.27500
H1509       H  0.54290996  0.48512695  0.15083963     0.13200
N1510       N  0.54857289  0.48180809  0.19421609    -0.82500
H1511       H  0.47294794  0.48538850  0.19296584     0.18100
N1512       N  0.46715731  0.48690686  0.14905693    -0.81100
H1513       H  0.55643130  0.46765107  0.18843794     0.33700
H1514       H  0.55828561  0.49534508  0.19003377     0.38200
H1515       H  0.45405679  0.48595877  0.16018310     0.33700
H1516       H  0.46582941  0.50214548  0.14120653     0.30400
H1517       H  0.50753800  0.54279129  0.11576281     0.33700
H1518       H  0.49280773  0.52985631  0.13517323     0.30400
H1519       H  0.49535901  0.44872347  0.06764896     0.38200
H1520       H  0.51071025  0.43628444  0.08686534     0.33700
C1521       C  0.09080218  0.48666746  0.49269987    -0.20000
C1522       C  0.10333273  0.49698110  0.50933525     0.36200
C1523       C  0.12636112  0.49710665  0.50766865    -0.26000
C1524       C  0.13723271  0.48702017  0.48996873     0.02600
C1525       C  0.12488978  0.47631533  0.47365591     0.27400
C1526       C  0.10189020  0.47617407  0.47523058    -0.25100
N1527       N  0.09280055  0.50719746  0.52790862    -0.82500
H1528       H  0.13597092  0.50499391  0.52036594     0.13200
C1529       C  0.16156927  0.48794202  0.48873604     0.02600
N1530       N  0.13575137  0.46595333  0.45535045    -0.81100
H1531       H  0.09259485  0.46812313  0.46241607     0.18100
C1532       C  0.17376118  0.46834610  0.48832864    -0.25900
C1533       C  0.19685171  0.46865076  0.48787355     0.36100
C1534       C  0.20794206  0.48903695  0.48753748    -0.20000
C1535       C  0.19566326  0.50856463  0.48812551    -0.25200
C1536       C  0.17263809  0.50826100  0.48846142     0.27500
H1537       H  0.16520188  0.45276053  0.48888495     0.13200
N1538       N  0.20900576  0.44838652  0.48853893    -0.82500
H1539       H  0.20403365  0.52419601  0.48819424     0.18100
N1540       N  0.16042259  0.52850874  0.48840339    -0.81100
H1541       H  0.19837089  0.43492280  0.48874651     0.33700
H1542       H  0.21762245  0.44797356  0.50339220     0.38200
H1543       H  0.17102376  0.54200286  0.48829640     0.33700
H1544       H  0.15158072  0.52920041  0.47369776     0.30400
H1545       H  0.12433303  0.45866384  0.44485766     0.33700
H1546       H  0.14358667  0.47826496  0.44622828     0.30400
H1547       H  0.08544775  0.49473509  0.53723013     0.38200
H1548       H  0.10437182  0.51461298  0.53814493     0.33700
C1549       C  0.28734830  0.46859005  0.46484269    -0.20000
C1550       C  0.31020420  0.46996893  0.46911583     0.36200
C1551       C  0.32527498  0.45705906  0.45711798    -0.26000
C1552       C  0.31821717  0.44290475  0.44042747     0.02600
C1553       C  0.29569466  0.44228222  0.43518934     0.27400
C1554       C  0.28060684  0.45493944  0.44737524    -0.25100
N1555       N  0.31823944  0.48441996  0.48581992    -0.82500
H1556       H  0.34257057  0.45787873  0.46110420     0.13200
C1557       C  0.33414087  0.42826355  0.42872597     0.02600
N1558       N  0.28822021  0.42880140  0.41730421    -0.81100
H1559       H  0.26367642  0.45410153  0.44256180     0.18100
C1560       C  0.33055678  0.40550144  0.42923250    -0.25900
C1561       C  0.34291606  0.39114398  0.41599965     0.36100
C1562       C  0.35929256  0.39965867  0.40184157    -0.20000
C1563       C  0.36420517  0.42217359  0.40265659    -0.25200
C1564       C  0.35168284  0.43663403  0.41591674     0.27500
H1565       H  0.31747905  0.39899808  0.43947369     0.13200
N1566       N  0.33844831  0.36794532  0.41631485    -0.82500
H1567       H  0.37683333  0.42867896  0.39186724     0.18100
N1568       N  0.35608329  0.45982560  0.41567337    -0.81100
H1569       H  0.32581374  0.36432573  0.42743282     0.33700
H1570       H  0.35251714  0.35997452  0.42210040     0.38200
H1571       H  0.36950329  0.46329351  0.40547371     0.33700
H1572       H  0.34250258  0.46770181  0.40871231     0.30400
H1573       H  0.27119646  0.42995328  0.41554896     0.33700
H1574       H  0.29511380  0.43503475  0.40278943     0.30400
H1575       H  0.32923015  0.49540747  0.47846358     0.38200
H1576       H  0.32689010  0.47501600  0.49732720     0.33700
C1577       C  0.00254363  0.68983831  0.48859069    -0.20000
C1578       C  0.00303911  0.67715880  0.46914191     0.36200
C1579       C  0.00324501  0.65407601  0.47065541    -0.26000
C1580       C  0.00297848  0.64333854  0.49116225     0.02600
C1581       C  0.00270150  0.65602131  0.51059180     0.27400
C1582       C  0.00276982  0.67908911  0.50907760    -0.25100
N1583       N  0.00383295  0.68772421  0.44795539    -0.82500
H1584       H  0.00389599  0.64435999  0.45574136     0.13200
C1585       C  0.00326473  0.61883487  0.49196186     0.02600
N1586       N  0.00201090  0.64543360  0.53177598    -0.81100
H1587       H  0.00253156  0.68870485  0.52402492     0.18100
C1588       C  0.01983009  0.60792413  0.50372045    -0.25900
C1589       C  0.02103783  0.58480644  0.50437720     0.36100
C1590       C  0.00522674  0.57217541  0.49293492    -0.20000
C1591       C  0.98864763  0.58326599  0.48119873    -0.25200
C1592       C  0.98739961  0.60633747  0.48073967     0.27500
H1593       H  0.03215417  0.61754704  0.51213169     0.13200
N1594       N  0.03840801  0.57428943  0.51644228    -0.82500
H1595       H  0.97633309  0.57391019  0.47249351     0.18100
N1596       N  0.96990530  0.61714109  0.46910822    -0.81100
H1597       H  0.04801494  0.58592381  0.52457275     0.33700
H1598       H  0.04871955  0.56662155  0.50499255     0.38200
H1599       H  0.95964642  0.60563936  0.46162107     0.33700
H1600       H  0.96032452  0.62547622  0.48072549     0.30400
H1601       H  0.00193347  0.65708918  0.54439912     0.33700
H1602       H  0.98713549  0.63696597  0.53291876     0.30400
H1603       H  0.00407832  0.67606302  0.43534275     0.38200
H1604       H  0.01865465  0.69629197  0.44692692     0.33700
C1605       C  0.70529038  0.99534401  0.48136349    -0.20000
C1606       C  0.69423194  0.01555977  0.47893150     0.36200
C1607       C  0.67121932  0.01623125  0.48001901    -0.26000
C1608       C  0.65905921  0.99699344  0.48360619     0.02600
C1609       C  0.67011561  0.97675656  0.48626745     0.27400
C1610       C  0.69313415  0.97610574  0.48488513    -0.25100
N1611       N  0.70629439  0.03533440  0.47479452    -0.82500
H1612       H  0.66279249  0.03177808  0.47780092     0.13200
C1613       C  0.63473484  0.99799107  0.48399643     0.02600
N1614       N  0.65788840  0.95702729  0.49063864    -0.81100
H1615       H  0.70168015  0.96062370  0.48709605     0.18100
C1616       C  0.62301300  0.98654642  0.46793100    -0.25900
C1617       C  0.60003094  0.98599124  0.46822459     0.36100
C1618       C  0.58827353  0.99688643  0.48517741    -0.20000
C1619       C  0.60012574  0.00904511  0.50082369    -0.25200
C1620       C  0.62323242  0.00968651  0.50040516     0.27500
H1621       H  0.63181549  0.97787800  0.45505347     0.13200
N1622       N  0.58882204  0.97442614  0.45110790    -0.82500
H1623       H  0.59140313  0.01771534  0.51372980     0.18100
N1624       N  0.63507234  0.02181631  0.51678286    -0.81100
H1625       H  0.59338687  0.98133868  0.43599086     0.33700
H1626       H  0.59411507  0.95807014  0.45131544     0.38200
H1627       H  0.62420600  0.02962356  0.52760529     0.33700
H1628       H  0.64404069  0.01052289  0.52614937     0.30400
H1629       H  0.66845386  0.94355233  0.49217775     0.33700
H1630       H  0.65012453  0.95894163  0.50589902     0.30400
H1631       H  0.70254070  0.04654756  0.48727387     0.38200
H1632       H  0.70092984  0.04197878  0.45985802     0.33700
C1633       C  0.98124165  0.96567455  0.27033435    -0.20000
C1634       C  0.95828370  0.96944978  0.27117152     0.36200
C1635       C  0.94485048  0.95650804  0.28482955    -0.26000
C1636       C  0.95375560  0.93961650  0.29771659     0.02600
C1637       C  0.97644854  0.93562274  0.29710270     0.27400
C1638       C  0.98988151  0.94847195  0.28341134    -0.25100
N1639       N  0.94848690  0.98644111  0.25808722    -0.82500
H1640       H  0.92733462  0.95961386  0.28531805     0.13200
C1641       C  0.93931246  0.92638242  0.31220365     0.02600
N1642       N  0.98580359  0.91858590  0.31062634    -0.81100
H1643       H  0.00704965  0.94456640  0.28342448     0.18100
C1644       C  0.93721205  0.90379724  0.30847189    -0.25900
C1645       C  0.92446636  0.89058374  0.32247667     0.36100
C1646       C  0.91274172  0.90011638  0.34026530    -0.20000
C1647       C  0.91578030  0.92278590  0.34432827    -0.24400
C1648       C  0.92891711  0.93590386  0.33053628     0.27500
H1649       H  0.94579346  0.89630611  0.29473446     0.13200
N1650       N  0.92372248  0.86736212  0.31869875    -0.82500
H1651       H  0.90883707  0.93053288  0.35865733     0.18100
N1652       N  0.93221460  0.95879168  0.33537017    -0.81100
H1653       H  0.93974120  0.86123306  0.31950301     0.33700
H1654       H  0.91787013  0.86474747  0.30275846     0.38200
H1655       H  0.92340437  0.96337739  0.34943730     0.33700
H1656       H  0.94881969  0.96093087  0.33906302     0.30400
H1657       H  0.00276751  0.91751516  0.30820727     0.33700
H1658       H  0.98340015  0.92305104  0.32707435     0.30400
H1659       H  0.94035682  0.99730983  0.26865462     0.38200
H1660       H  0.93679242  0.97922856  0.24784961     0.33700
C1661       C  0.91037171  0.83806698  0.39537259    -0.20000
C1662       C  0.92853645  0.82597765  0.38703095     0.36200
C1663       C  0.93994071  0.81138946  0.40092040    -0.26000
C1664       C  0.93366774  0.80838228  0.42292303     0.02600
C1665       C  0.91501800  0.81952896  0.43102053     0.27400
C1666       C  0.90343097  0.83403885  0.41708362    -0.25100
N1667       N  0.93542859  0.82852156  0.36449208    -0.82500
H1668       H  0.95406393  0.80250319  0.39465159     0.13200
C1669       C  0.94701245  0.79357096  0.43717770     0.02600
N1670       N  0.90807387  0.81622137  0.45342077    -0.81100
H1671       H  0.88932155  0.84264449  0.42344403     0.18100
C1672       C  0.96007341  0.80251910  0.45381078    -0.25900
C1673       C  0.97399829  0.78916320  0.46659338     0.36100
C1674       C  0.97472142  0.76608702  0.46326461    -0.20000
C1675       C  0.96158636  0.75734805  0.44624998    -0.25200
C1676       C  0.94781908  0.77079066  0.43332635     0.27500
H1677       H  0.95982638  0.82010658  0.45658766     0.13200
N1678       N  0.98759783  0.79922098  0.48289186    -0.82500
H1679       H  0.96201436  0.74012750  0.44236538     0.18100
N1680       N  0.93470214  0.76140931  0.41611876    -0.81100
H1681       H  0.97744223  0.80759934  0.49397401     0.33700
H1682       H  0.99763411  0.81076236  0.47502660     0.38200
H1683       H  0.93719933  0.74443480  0.41515757     0.33700
H1684       H  0.91822080  0.76373875  0.42038124     0.30400
H1685       H  0.89419613  0.82574891  0.45690695     0.33700
H1686       H  0.90332212  0.79979263  0.45504685     0.30400
H1687       H  0.92274286  0.82293148  0.35447047     0.38200
H1688       H  0.94906767  0.81862586  0.36108694     0.33700
C1689       C  0.85185789  0.89421199  0.39733906    -0.20000
C1690       C  0.84799917  0.88926343  0.41972903     0.36200
C1691       C  0.83233519  0.90158598  0.43168379    -0.26000
C1692       C  0.82088720  0.91900477  0.42175049     0.02600
C1693       C  0.82410719  0.92344602  0.39924580     0.27400
C1694       C  0.83919614  0.91077655  0.38721619    -0.25100
N1695       N  0.86079040  0.87269710  0.43057162    -0.82500
H1696       H  0.82979337  0.89832126  0.44905263     0.13200
C1697       C  0.80695281  0.93377755  0.43528899     0.02600
N1698       N  0.81278010  0.94149266  0.38896553    -0.81100
H1699       H  0.84172261  0.91444237  0.36992247     0.18100
C1700       C  0.81648825  0.95227276  0.44492629    -0.25900
C1701       C  0.80385244  0.96739176  0.45709018     0.36100
C1702       C  0.78070504  0.96466287  0.45869934    -0.20000
C1703       C  0.77152857  0.94532946  0.44972207    -0.25200
C1704       C  0.78437919  0.92998862  0.43803680     0.27500
H1705       H  0.83399830  0.95481053  0.44305986     0.13200
N1706       N  0.81458110  0.98547074  0.46778549    -0.82500
H1707       H  0.75442567  0.94153943  0.45221117     0.18100
N1708       N  0.77467636  0.91035000  0.42929498    -0.81100
H1709       H  0.83139244  0.98549680  0.46427121     0.33700
H1710       H  0.81313745  0.98310411  0.48477138     0.38200
H1711       H  0.75793571  0.90973195  0.43307503     0.33700
H1712       H  0.77585861  0.91109313  0.41214039     0.30400
H1713       H  0.81746959  0.94301056  0.37245226     0.33700
H1714       H  0.79603320  0.93784366  0.38901897     0.30400
H1715       H  0.87692993  0.87845461  0.43118114     0.38200
H1716       H  0.85562905  0.87075006  0.44689747     0.33700
C1717       C  0.85332637  0.84246461  0.34556116    -0.20000
C1718       C  0.85967845  0.82194625  0.33692013     0.36200
C1719       C  0.84459528  0.80968292  0.32451490    -0.26000
C1720       C  0.82330202  0.81757098  0.32070104     0.02600
C1721       C  0.81666882  0.83772867  0.33004935     0.27400
C1722       C  0.83178590  0.84999389  0.34248159    -0.25100
N1723       N  0.88164588  0.81403480  0.34019638    -0.82500
H1724       H  0.84961397  0.79421418  0.31724382     0.13200
C1725       C  0.80890915  0.80552432  0.30520948     0.02600
N1726       N  0.79481865  0.84586818  0.32641086    -0.81100
H1727       H  0.82706785  0.86587334  0.34903956     0.18100
C1728       C  0.79342603  0.79052041  0.31318840    -0.25900
C1729       C  0.78018013  0.77842668  0.29867815     0.36100
C1730       C  0.78215773  0.78136514  0.27553890    -0.20000
C1731       C  0.79779345  0.79670681  0.26781991    -0.25200
C1732       C  0.81108983  0.80869943  0.28236442     0.27500
H1733       H  0.79177678  0.78798682  0.33078632     0.13200
N1734       N  0.76480979  0.76294577  0.30756902    -0.82500
H1735       H  0.80021635  0.79953209  0.25051410     0.18100
N1736       N  0.82712432  0.82394009  0.27401151    -0.81100
H1737       H  0.77349036  0.75147109  0.31698805     0.33700
H1738       H  0.75409046  0.77139016  0.31805164     0.38200
H1739       H  0.82703958  0.82419984  0.25679918     0.33700
H1740       H  0.82250882  0.83967534  0.27914411     0.30400
H1741       H  0.79251645  0.86084858  0.33450216     0.33700
H1742       H  0.79318922  0.84909930  0.30958140     0.30400
H1743       H  0.88359437  0.81127188  0.35707672     0.38200
H1744       H  0.88385859  0.79885022  0.33247399     0.33700
C1745       C  0.66648230  0.24442436  0.48728157    -0.20000
C1746       C  0.65488628  0.24163219  0.46732647     0.36200
C1747       C  0.63179647  0.24188311  0.46752912    -0.26000
C1748       C  0.62007712  0.24490318  0.48716307     0.02600
C1749       C  0.63150421  0.24741206  0.50712268     0.27400
C1750       C  0.65461054  0.24736403  0.50695601    -0.25100
N1751       N  0.66654656  0.23899374  0.44687216    -0.82500
H1752       H  0.62284388  0.23989900  0.45228048     0.13200
C1753       C  0.59577917  0.24527224  0.48655006     0.02600
N1754       N  0.61959227  0.24945972  0.52750285    -0.81100
H1755       H  0.66340052  0.24931012  0.52230040     0.18100
C1756       C  0.58425720  0.22541973  0.48787104    -0.25900
C1757       C  0.56118092  0.22507866  0.48742836     0.36100
C1758       C  0.54942280  0.24511396  0.48617430    -0.20000
C1759       C  0.56107794  0.26492476  0.48418907    -0.25200
C1760       C  0.58416233  0.26518880  0.48424533     0.27500
H1761       H  0.59334968  0.21014483  0.48913212     0.13200
N1762       N  0.54970356  0.20446116  0.48787325    -0.82500
H1763       H  0.55214668  0.28030363  0.48313874     0.18100
N1764       N  0.59586684  0.28554063  0.48173034    -0.81100
H1765       H  0.56074441  0.19132101  0.48883366     0.33700
H1766       H  0.54146903  0.20288331  0.47289145     0.38200
H1767       H  0.58490079  0.29862930  0.47976300     0.33700
H1768       H  0.60438867  0.28848653  0.49631928     0.30400
H1769       H  0.63043186  0.25068321  0.54074499     0.33700
H1770       H  0.61077500  0.26419428  0.52702166     0.30400
H1771       H  0.67498627  0.25362484  0.44374091     0.38200
H1772       H  0.65559226  0.23688685  0.43384059     0.33700
C1773       C  0.75723279  0.16081804  0.48227058    -0.20000
C1774       C  0.77807154  0.15056438  0.48153699     0.36200
C1775       C  0.77943017  0.12754124  0.47985593    -0.26000
C1776       C  0.76042383  0.11468627  0.47883586     0.02600
C1777       C  0.73963751  0.12486376  0.47943068     0.27400
C1778       C  0.73824589  0.14788413  0.48089545    -0.25100
N1779       N  0.79773292  0.16356868  0.48226082    -0.82500
H1780       H  0.79533248  0.11953874  0.47951888     0.13200
C1781       C  0.76238134  0.09045282  0.47872580     0.02600
N1782       N  0.72006796  0.11170018  0.47928649    -0.81100
H1783       H  0.72228117  0.15574175  0.48152207     0.18100
C1784       C  0.76328218  0.07938304  0.49891401    -0.25900
C1785       C  0.76372376  0.05633580  0.49983260     0.36100
C1786       C  0.76269593  0.04410575  0.48010058    -0.20000
C1787       C  0.76280703  0.05526687  0.45981381    -0.25200
C1788       C  0.76270249  0.07840522  0.45893899     0.27500
H1789       H  0.76347780  0.08882037  0.51402294     0.13200
N1790       N  0.76538447  0.04532702  0.52073203    -0.82500
H1791       H  0.76222988  0.04593634  0.44466166     0.18100
N1792       N  0.76292537  0.08970670  0.43812363    -0.81100
H1793       H  0.76581972  0.05668364  0.53360863     0.33700
H1794       H  0.78040282  0.03700243  0.52095427     0.38200
H1795       H  0.76349012  0.07844432  0.42516257     0.33700
H1796       H  0.74810981  0.09824418  0.43660116     0.30400
H1797       H  0.70611098  0.12167050  0.48034400     0.33700
H1798       H  0.71928180  0.10372418  0.46409675     0.30400
H1799       H  0.79812614  0.17328954  0.46804045     0.38200
H1800       H  0.81164796  0.15349983  0.48167053     0.33700
C1801       C  0.83752318  0.24652072  0.48962270    -0.20000
C1802       C  0.85100715  0.24926733  0.47083190     0.36200
C1803       C  0.87391622  0.24698968  0.47289726    -0.26000
C1804       C  0.88348210  0.24208679  0.49329383     0.02600
C1805       C  0.87016026  0.23998935  0.51214616     0.27400
C1806       C  0.84731300  0.24205496  0.51009127    -0.25100
N1807       N  0.84143644  0.25382780  0.44970738    -0.82500
H1808       H  0.88437558  0.24881906  0.45854043     0.13200
C1809       C  0.90757258  0.23968553  0.49484294     0.02600
N1810       N  0.87993366  0.23616745  0.53333647    -0.81100
H1811       H  0.83705939  0.24020650  0.52459534     0.18100
C1812       C  0.92032136  0.25841958  0.49851774    -0.25900
C1813       C  0.94325523  0.25690363  0.50024631     0.36100
C1814       C  0.95355765  0.23619631  0.49824422    -0.20000
C1815       C  0.94073201  0.21740212  0.49474250    -0.25200
C1816       C  0.91777410  0.21895876  0.49289896     0.27500
H1817       H  0.91229732  0.27425349  0.50009092     0.13200
N1818       N  0.95610071  0.27626225  0.50423602    -0.82500
H1819       H  0.94871950  0.20158341  0.49288157     0.18100
N1820       N  0.90484536  0.19973958  0.48847121    -0.81100
H1821       H  0.94605400  0.29019286  0.50505537     0.33700
H1822       H  0.96328298  0.27448164  0.51973081     0.38200
H1823       H  0.91492273  0.18588494  0.48702953     0.33700
H1824       H  0.89465259  0.19695515  0.50206145     0.30400
H1825       H  0.86787193  0.23556622  0.54561335     0.33700
H1826       H  0.88735597  0.22067808  0.53305127     0.30400
H1827       H  0.83217472  0.24011749  0.44521089     0.38200
H1828       H  0.85365834  0.25561531  0.43770873     0.33700
C1829       C  0.76166967  0.24512979  0.69053847    -0.20000
C1830       C  0.76414180  0.26505547  0.67861355     0.36200
C1831       C  0.76256609  0.26488573  0.65550906    -0.26000
C1832       C  0.75771721  0.24550651  0.64412036     0.02600
C1833       C  0.75416151  0.22592826  0.65596647     0.27400
C1834       C  0.75622093  0.22595897  0.67892472    -0.25100
N1835       N  0.76739215  0.28551846  0.68990989    -0.82500
H1836       H  0.76494521  0.27998036  0.64630623     0.13200
C1837       C  0.75649417  0.24574033  0.61975123     0.02600
N1838       N  0.74824452  0.20610328  0.64460150    -0.81100
H1839       H  0.75320999  0.21083472  0.68759792     0.18100
C1840       C  0.77050833  0.23194746  0.60777619    -0.25900
C1841       C  0.76940061  0.23073135  0.58473596     0.36100
C1842       C  0.75415878  0.24417219  0.57322294    -0.20000
C1843       C  0.74031523  0.25821982  0.58540807    -0.25200
C1844       C  0.74120341  0.25899449  0.60852348     0.27500
H1845       H  0.78225548  0.22183765  0.61656452     0.13200
N1846       N  0.78379104  0.21591135  0.57319348    -0.82500
H1847       H  0.72859076  0.26858136  0.57691907     0.18100
N1848       N  0.72648953  0.27298809  0.62066090    -0.81100
H1849       H  0.79481565  0.20841289  0.58403640     0.33700
H1850       H  0.77410665  0.20326475  0.56686571     0.38200
H1851       H  0.71630122  0.28176113  0.60995375     0.33700
H1852       H  0.71626472  0.26288580  0.63012496     0.30400
H1853       H  0.74635793  0.19305234  0.65567935     0.33700
H1854       H  0.73290480  0.20871191  0.63738263     0.30400
H1855       H  0.75329460  0.28862870  0.69927372     0.38200
H1856       H  0.76885244  0.29851430  0.67870660     0.33700
C1857       C  0.75615842  0.99231706  0.65104190    -0.20000
C1858       C  0.75828440  0.01216099  0.63906526     0.36200
C1859       C  0.75815347  0.01160740  0.61592630    -0.26000
C1860       C  0.75594329  0.99169322  0.60465433     0.02600
C1861       C  0.75375477  0.97190936  0.61649575     0.27400
C1862       C  0.75375156  0.97242296  0.63961030    -0.25100
N1863       N  0.76027670  0.03277386  0.65039670    -0.82500
H1864       H  0.75977813  0.02673026  0.60659779     0.13200
C1865       C  0.75623483  0.99174669  0.58036010     0.02600
N1866       N  0.75195680  0.95138734  0.60496586    -0.81100
H1867       H  0.75227519  0.95717456  0.64875172     0.18100
C1868       C  0.77621236  0.98869968  0.56931924    -0.25900
C1869       C  0.77724394  0.98887232  0.54620106     0.36100
C1870       C  0.75771720  0.99164144  0.53397873    -0.20000
C1871       C  0.73774043  0.99476063  0.54519290    -0.25200
C1872       C  0.73682388  0.99493749  0.56829369     0.27500
H1873       H  0.79107166  0.98648304  0.57882673     0.13200
N1874       N  0.79806309  0.98676003  0.53518449    -0.82500
H1875       H  0.72272460  0.99682588  0.53591503     0.18100
N1876       N  0.71634997  0.99855663  0.57957348    -0.81100
H1877       H  0.81073231  0.98484415  0.54659543     0.33700
H1878       H  0.80108767  0.00148061  0.52680557     0.38200
H1879       H  0.70366533  0.00099387  0.56827592     0.33700
H1880       H  0.71253690  0.98423246  0.58830872     0.30400
H1881       H  0.75086930  0.93830085  0.61610530     0.33700
H1882       H  0.73721949  0.95162964  0.59621771     0.30400
H1883       H  0.74562655  0.03545763  0.65900578     0.38200
H1884       H  0.76184499  0.04572713  0.63915423     0.33700
C1885       C  0.75846025  0.07594457  0.73789408    -0.20000
C1886       C  0.73944462  0.08924975  0.73818361     0.36200
C1887       C  0.74163709  0.11217135  0.74013412    -0.26000
C1888       C  0.76238311  0.12188924  0.74199452     0.02600
C1889       C  0.78134131  0.10862798  0.74212449     0.27400
C1890       C  0.77919656  0.08577912  0.73981151    -0.25100
N1891       N  0.71807900  0.07949918  0.73615835    -0.82500
H1892       H  0.72716599  0.12255537  0.74000434     0.13200
C1893       C  0.76404311  0.14608278  0.74292555     0.02600
N1894       N  0.80259782  0.11835900  0.74520279    -0.81100
H1895       H  0.79376014  0.07552446  0.73999513     0.18100
C1896       C  0.76195606  0.15690865  0.76320397    -0.25900
C1897       C  0.76250481  0.18003308  0.76433727     0.36100
C1898       C  0.76560126  0.19231021  0.74483473    -0.20000
C1899       C  0.76854190  0.18130622  0.72481267    -0.25200
C1900       C  0.76729565  0.15835729  0.72352503     0.27500
H1901       H  0.75944689  0.14729904  0.77804465     0.13200
N1902       N  0.75953917  0.19105724  0.78503856    -0.82500
H1903       H  0.77195201  0.19065302  0.71011043     0.18100
N1904       N  0.76855554  0.14752614  0.70252785    -0.81100
H1905       H  0.75750318  0.17962788  0.79776507     0.33700
H1906       H  0.74494070  0.20007449  0.78414251     0.38200
H1907       H  0.77017115  0.15904084  0.68981391     0.33700
H1908       H  0.78279971  0.13795933  0.70225241     0.30400
H1909       H  0.81478049  0.10623613  0.74549231     0.33700
H1910       H  0.80598508  0.12832693  0.73159053     0.30400
H1911       H  0.71716681  0.07235324  0.72055252     0.38200
H1912       H  0.70585222  0.09156825  0.73678613     0.33700
C1913       C  0.91975761  0.24443832  0.24150892    -0.20000
C1914       C  0.90642989  0.24812054  0.26024256     0.36200
C1915       C  0.88344429  0.24794049  0.25804876    -0.26000
C1916       C  0.87359690  0.24425022  0.23756985     0.02600
C1917       C  0.88682265  0.24095880  0.21879504     0.27400
C1918       C  0.90976678  0.24074245  0.22102485    -0.25100
N1919       N  0.91622383  0.25177878  0.28141211    -0.82500
H1920       H  0.87311289  0.25074522  0.27233577     0.13200
C1921       C  0.84939501  0.24505469  0.23585278     0.02600
N1922       N  0.87694496  0.23881706  0.19743593    -0.81100
H1923       H  0.91993702  0.23824385  0.20656691     0.18100
C1924       C  0.83907076  0.26556124  0.23422440    -0.25900
C1925       C  0.81612344  0.26723789  0.23276948     0.36100
C1926       C  0.80326728  0.24791799  0.23282161    -0.20000
C1927       C  0.81368965  0.22736905  0.23439786    -0.25200
C1928       C  0.83665073  0.22574665  0.23622631     0.27500
H1929       H  0.84901352  0.28031164  0.23409899     0.13200
N1930       N  0.80589686  0.28847077  0.23102935    -0.82500
H1931       H  0.80380646  0.21259227  0.23498832     0.18100
N1932       N  0.84696770  0.20471093  0.23944315    -0.81100
H1933       H  0.81762289  0.30096774  0.23169623     0.33700
H1934       H  0.79870841  0.28944899  0.21547736     0.38200
H1935       H  0.83518936  0.19224966  0.24003630     0.33700
H1936       H  0.85685012  0.20145206  0.22575350     0.30400
H1937       H  0.88901365  0.23724694  0.18525673     0.33700
H1938       H  0.86792865  0.22424806  0.19723108     0.30400
H1939       H  0.92443111  0.23735279  0.28591665     0.38200
H1940       H  0.90413015  0.25445112  0.29337278     0.33700
C1941       C  0.72642970  0.22392188  0.20995530    -0.20000
C1942       C  0.73073537  0.20090401  0.20975970     0.36200
C1943       C  0.71749034  0.18683291  0.19716675    -0.26000
C1944       C  0.69948113  0.19483770  0.18540606     0.02600
C1945       C  0.69428431  0.21732018  0.18635415     0.27400
C1946       C  0.70767895  0.23159010  0.19860208    -0.25100
N1947       N  0.74871980  0.19179829  0.22210088    -0.82500
H1948       H  0.72119126  0.16941501  0.19652423     0.13200
C1949       C  0.68683743  0.17948182  0.17141125     0.02600
N1950       N  0.67526833  0.22552885  0.17501952    -0.81100
H1951       H  0.70283554  0.24859267  0.19945864     0.18100
C1952       C  0.66824598  0.16882531  0.17992066    -0.25900
C1953       C  0.65702369  0.15286313  0.16748175     0.36100
C1954       C  0.66447032  0.14771883  0.14601491    -0.20000
C1955       C  0.68278878  0.15893496  0.13744226    -0.25200
C1956       C  0.69404098  0.17468814  0.14992002     0.27500
H1957       H  0.66288778  0.17254028  0.19653397     0.13200
N1958       N  0.63871752  0.14131402  0.17692089    -0.82500
H1959       H  0.68844088  0.15529508  0.12091114     0.18100
N1960       N  0.71307637  0.18554064  0.14106026    -0.81100
H1961       H  0.63523357  0.14719348  0.19271571     0.33700
H1962       H  0.64343240  0.12490168  0.17878849     0.38200
H1963       H  0.71647154  0.17993242  0.12514879     0.33700
H1964       H  0.70936905  0.20226427  0.13962968     0.30400
H1965       H  0.67344506  0.24241954  0.17758233     0.33700
H1966       H  0.67790339  0.22343025  0.15813895     0.30400
H1967       H  0.74498309  0.19333333  0.23881892     0.38200
H1968       H  0.75033122  0.17495085  0.21913588     0.33700
C1969       C  0.75004689  0.24797014  0.28542634    -0.20000
C1970       C  0.76880980  0.24154069  0.29731521     0.36200
C1971       C  0.76810205  0.24156237  0.32041287    -0.26000
C1972       C  0.74906881  0.24803899  0.33167025     0.02600
C1973       C  0.73035334  0.25467328  0.31981434     0.27400
C1974       C  0.73096916  0.25439987  0.29668238    -0.25100
N1975       N  0.78842055  0.23493878  0.28586328    -0.82500
H1976       H  0.78242428  0.23658318  0.32971861     0.13200
C1977       C  0.74921946  0.24808450  0.35595040     0.02600
N1978       N  0.71108114  0.26214174  0.33131410    -0.81100
H1979       H  0.71673087  0.25961700  0.28737735     0.18100
C1980       C  0.75631501  0.26691190  0.36698679    -0.25900
C1981       C  0.75776463  0.26730991  0.39007885     0.36100
C1982       C  0.75159013  0.24844850  0.40235198    -0.20000
C1983       C  0.74432052  0.22965712  0.39105710    -0.25200
C1984       C  0.74321462  0.22924991  0.36797742     0.27500
H1985       H  0.76101485  0.28125581  0.35747099     0.13200
N1986       N  0.76501723  0.28693841  0.40096180    -0.82500
H1987       H  0.73970509  0.21509113  0.40025608     0.18100
N1988       N  0.73645406  0.20968036  0.35666370    -0.81100
H1989       H  0.76698163  0.29975829  0.38962834     0.33700
H1990       H  0.78065694  0.28376834  0.40724332     0.38200
H1991       H  0.73297228  0.19711660  0.36791537     0.33700
H1992       H  0.72177445  0.21318514  0.34852435     0.30400
H1993       H  0.69893790  0.26688164  0.32014076     0.33700
H1994       H  0.70473785  0.24885266  0.34020191     0.30400
H1995       H  0.78481086  0.22061849  0.27712611     0.38200
H1996       H  0.80080006  0.23084587  0.29702618     0.33700
C1997       C  0.76421413  0.58866808  0.24103670    -0.20000
C1998       C  0.77877536  0.60016882  0.25512612     0.36200
C1999       C  0.77742289  0.62316517  0.25654891    -0.26000
C2000       C  0.76216222  0.63507724  0.24413938     0.02600
C2001       C  0.74796259  0.62383941  0.22978408     0.27400
C2002       C  0.74917768  0.60081580  0.22833200    -0.25100
N2003       N  0.79490159  0.58863742  0.26799824    -0.82500
H2004       H  0.78857570  0.63195117  0.26722408     0.13200
C2005       C  0.76170167  0.65939379  0.24594269     0.02600
N2006       N  0.73214403  0.63584893  0.21698009    -0.81100
H2007       H  0.73798010  0.59232922  0.21748357     0.18100
C2008       C  0.76517233  0.67210642  0.22697414    -0.25900
C2009       C  0.76487872  0.69508133  0.22793871     0.36100
C2010       C  0.76137269  0.70566232  0.24824282    -0.20000
C2011       C  0.75833366  0.69305090  0.26735108    -0.25200
C2012       C  0.75821141  0.66994205  0.26637340     0.27500
H2013       H  0.76819981  0.66413518  0.21131252     0.13200
N2014       N  0.76851410  0.70764000  0.20829083    -0.82500
H2015       H  0.75537518  0.70126635  0.28289553     0.18100
N2016       N  0.75416295  0.65715182  0.28589960    -0.81100
H2017       H  0.78379503  0.70322049  0.20177030     0.33700
H2018       H  0.75647309  0.70337653  0.19685921     0.38200
H2019       H  0.75190083  0.66740362  0.29951331     0.33700
H2020       H  0.73939176  0.64875129  0.28364689     0.30400
H2021       H  0.72300551  0.62518589  0.20715390     0.33700
H2022       H  0.72109874  0.64318869  0.22794774     0.30400
H2023       H  0.80645911  0.58209216  0.25705043     0.38200
H2024       H  0.80346131  0.59946802  0.27816326     0.33700
C2025       C  0.67610050  0.50696189  0.24453423    -0.20000
C2026       C  0.66249474  0.51468700  0.22730234     0.36200
C2027       C  0.63952891  0.51307125  0.22945214    -0.26000
C2028       C  0.62978672  0.50445530  0.24857796     0.02600
C2029       C  0.64322301  0.49777847  0.26619393     0.27400
C2030       C  0.66615867  0.49889993  0.26392480    -0.25100
N2031       N  0.67189199  0.52344611  0.20739741    -0.82500
H2032       H  0.62912033  0.51823344  0.21595992     0.13200
C2033       C  0.60554524  0.50168923  0.24954008     0.02600
N2034       N  0.63348960  0.48981569  0.28628607    -0.81100
H2035       H  0.67633354  0.49337234  0.27744901     0.18100
C2036       C  0.59674850  0.48055718  0.25242337    -0.25900
C2037       C  0.57394082  0.47698263  0.25212249     0.36100
C2038       C  0.55959919  0.49503900  0.24931514    -0.20000
C2039       C  0.56845003  0.51619686  0.24668907    -0.25200
C2040       C  0.59123971  0.51971429  0.24676474     0.27500
H2041       H  0.60779598  0.46669873  0.25425228     0.13200
N2042       N  0.56540070  0.45504349  0.25389476    -0.82500
H2043       H  0.55750903  0.53011843  0.24471577     0.18100
N2044       N  0.59993021  0.54151009  0.24408665    -0.81100
H2045       H  0.57813050  0.44367681  0.25590428     0.33700
H2046       H  0.55779714  0.45129834  0.23896378     0.38200
H2047       H  0.58723959  0.55292291  0.24205135     0.33700
H2048       H  0.60795069  0.54564232  0.25868312     0.30400
H2049       H  0.64561987  0.48549215  0.29764001     0.33700
H2050       H  0.62461453  0.50278717  0.29326715     0.30400
H2051       H  0.67899492  0.53855856  0.21131313     0.38200
H2052       H  0.65964160  0.52689941  0.19588064     0.33700
C2053       C  0.75730311  0.41839729  0.24060695    -0.20000
C2054       C  0.73835925  0.40713347  0.24810240     0.36200
C2055       C  0.73753296  0.38411758  0.24660675    -0.26000
C2056       C  0.75498761  0.37211361  0.23754634     0.02600
C2057       C  0.77381291  0.38321446  0.22993428     0.27400
C2058       C  0.77474965  0.40622606  0.23146269    -0.25100
N2059       N  0.71983955  0.41901176  0.25678329    -0.82500
H2060       H  0.72303897  0.37544328  0.25224786     0.13200
C2061       C  0.75335095  0.34785597  0.23636535     0.02600
N2062       N  0.79196435  0.37103638  0.22089682    -0.81100
H2063       H  0.78931733  0.41466056  0.22566906     0.18100
C2064       C  0.75379356  0.33744401  0.21577405    -0.25900
C2065       C  0.75250992  0.31442769  0.21411785     0.36100
C2066       C  0.75066392  0.30170392  0.23351810    -0.20000
C2067       C  0.74994913  0.31220510  0.25404377    -0.25200
C2068       C  0.75130890  0.33514448  0.25568459     0.27500
H2069       H  0.75524774  0.34734469  0.20098382     0.13200
N2070       N  0.75343138  0.30400214  0.19291496    -0.82500
H2071       H  0.74845183  0.30241517  0.26890780     0.18100
N2072       N  0.75091607  0.34559660  0.27688930    -0.81100
H2073       H  0.75480619  0.31574920  0.18039116     0.33700
H2074       H  0.76770419  0.29448086  0.19226797     0.38200
H2075       H  0.74919340  0.33391643  0.28943385     0.33700
H2076       H  0.76616216  0.35308353  0.27918951     0.30400
H2077       H  0.80452731  0.38165860  0.21595162     0.33700
H2078       H  0.79838578  0.36121978  0.23348643     0.30400
H2079       H  0.71314239  0.42821503  0.24388015     0.38200
H2080       H  0.70755418  0.40819348  0.26200805     0.33700
C2081       C  0.84717532  0.50196415  0.23869194    -0.20000
C2082       C  0.85824258  0.49614131  0.21898841     0.36200
C2083       C  0.88130277  0.49562436  0.21857295    -0.26000
C2084       C  0.89353412  0.50108013  0.23725064     0.02600
C2085       C  0.88259556  0.50716776  0.25680633     0.27400
C2086       C  0.85953109  0.50771057  0.25728417    -0.25100
N2087       N  0.84609857  0.49119684  0.19935863    -0.82500
H2088       H  0.88984033  0.49122216  0.20352601     0.13200
C2089       C  0.91783830  0.50047297  0.23609414     0.02600
N2090       N  0.89499051  0.51247812  0.27616606    -0.81100
H2091       H  0.85116159  0.51219589  0.27239422     0.18100
C2092       C  0.92968033  0.51998185  0.23906263    -0.25900
C2093       C  0.95273882  0.51996825  0.23876463     0.36100
C2094       C  0.96408361  0.50005019  0.23522004    -0.20000
C2095       C  0.95225596  0.48057201  0.23211424    -0.25200
C2096       C  0.92919555  0.48058404  0.23242802     0.27500
H2097       H  0.92085543  0.53520978  0.24184986     0.13200
N2098       N  0.96466881  0.53995005  0.24258917    -0.82500
H2099       H  0.96107796  0.46530701  0.22949545     0.18100
N2100       N  0.91725386  0.46048623  0.22931394    -0.81100
H2101       H  0.95386340  0.55312423  0.24488684     0.33700
H2102       H  0.97327624  0.53803835  0.25733620     0.38200
H2103       H  0.92805161  0.44736819  0.22667603     0.33700
H2104       H  0.90883742  0.45707891  0.24395925     0.30400
H2105       H  0.88450347  0.51666317  0.28916734     0.33700
H2106       H  0.90338910  0.49828307  0.28103589     0.30400
H2107       H  0.83797186  0.50556137  0.19451792     0.38200
H2108       H  0.85670776  0.48703586  0.18644752     0.33700
C2109       C  0.80315148  0.49810682  0.49484293    -0.20000
C2110       C  0.81681173  0.51681870  0.49579669     0.36200
C2111       C  0.83975078  0.51417338  0.49437687    -0.26000
C2112       C  0.84922245  0.49329666  0.49167263     0.02600
C2113       C  0.83559464  0.47469081  0.49033674     0.27400
C2114       C  0.81275383  0.47726303  0.49213354    -0.25100
N2115       N  0.80739463  0.53840708  0.49771896    -0.82500
H2116       H  0.85032843  0.52843089  0.49533589     0.13200
C2117       C  0.87347507  0.49101072  0.49082371     0.02600
N2118       N  0.84504480  0.45328141  0.48698741    -0.81100
H2119       H  0.80236920  0.46285229  0.49140254     0.18100
C2120       C  0.88417177  0.47949274  0.50767862    -0.25900
C2121       C  0.90716633  0.47746978  0.50800673     0.36100
C2122       C  0.91979837  0.48695453  0.49080492    -0.20000
C2123       C  0.90888698  0.49821130  0.47374244    -0.25200
C2124       C  0.88589058  0.50026959  0.47355151     0.27500
H2125       H  0.87449225  0.47245869  0.52093274     0.13200
N2126       N  0.91762238  0.46628737  0.52603744    -0.82500
H2127       H  0.91832111  0.50541072  0.46041010     0.18100
N2128       N  0.87506501  0.51162242  0.45585542    -0.81100
H2129       H  0.90593533  0.45982354  0.53690097     0.33700
H2130       H  0.92642947  0.47801156  0.53491639     0.38200
H2131       H  0.88653556  0.51754091  0.44445932     0.33700
H2132       H  0.86541701  0.50016201  0.44752959     0.30400
H2133       H  0.83278630  0.44129786  0.48640154     0.33700
H2134       H  0.85266215  0.45333384  0.47153056     0.30400
H2135       H  0.81970181  0.55033835  0.49825796     0.38200
H2136       H  0.79834606  0.54143542  0.48342899     0.33700
C2137       C  0.75035217  0.50671811  0.44382844    -0.20000
C2138       C  0.73103128  0.50881477  0.43124744     0.36200
C2139       C  0.73265364  0.51049396  0.40818606    -0.26000
C2140       C  0.75312083  0.50955978  0.39749531     0.02600
C2141       C  0.77241806  0.50782070  0.41012781     0.27400
C2142       C  0.77082098  0.50665641  0.43314528    -0.25100
N2143       N  0.70988022  0.50848993  0.44180276    -0.82500
H2144       H  0.71787389  0.51194650  0.39842098     0.13200
C2145       C  0.75415210  0.50920462  0.37305888     0.02600
N2146       N  0.79352130  0.50667353  0.39950128    -0.81100
H2147       H  0.78567983  0.50532628  0.44281065     0.18100
C2148       C  0.76652801  0.52511364  0.36182780    -0.25900
C2149       C  0.76882458  0.52461625  0.33877485     0.36100
C2150       C  0.75871889  0.50752700  0.32666225    -0.20000
C2151       C  0.74591983  0.49193229  0.33804159    -0.25200
C2152       C  0.74357879  0.49255576  0.36102908     0.27500
H2153       H  0.77436561  0.53805268  0.37114982     0.13200
N2154       N  0.78119092  0.54152170  0.32777268    -0.82500
H2155       H  0.73789736  0.47890504  0.32902451     0.18100
N2156       N  0.73081249  0.47609423  0.37225369    -0.81100
H2157       H  0.78807634  0.55232698  0.33917341     0.33700
H2158       H  0.77015931  0.55080979  0.31842115     0.38200
H2159       H  0.72391266  0.46513720  0.36101241     0.33700
H2160       H  0.74150641  0.46692362  0.38209824     0.30400
H2161       H  0.80605690  0.50553447  0.41116160     0.33700
H2162       H  0.79402854  0.49213322  0.39037601     0.30400
H2163       H  0.70789306  0.49300935  0.44905188     0.38200
H2164       H  0.69737473  0.51017851  0.43017818     0.33700
C2165       C  0.65618795  0.58708022  0.59339558    -0.20000
C2166       C  0.67350728  0.57396575  0.60155803     0.36200
C2167       C  0.68615558  0.56115962  0.58709511    -0.26000
C2168       C  0.68227038  0.56130877  0.56433717     0.02600
C2169       C  0.66442851  0.57379466  0.55613489     0.27400
C2170       C  0.65140363  0.58632476  0.57080785    -0.25100
N2171       N  0.67835773  0.57356019  0.62461422    -0.82500
H2172       H  0.69939884  0.55125293  0.59370012     0.13200
C2173       C  0.69750490  0.54882732  0.54948634     0.02600
N2174       N  0.66004167  0.57428377  0.53290442    -0.81100
H2175       H  0.63814277  0.59635621  0.56444683     0.18100
C2176       C  0.68918195  0.53329816  0.53471394    -0.25900
C2177       C  0.70317515  0.52109836  0.52086841     0.36100
C2178       C  0.72629130  0.52375624  0.52197524    -0.20000
C2179       C  0.73448856  0.53963177  0.53669152    -0.25200
C2180       C  0.72042438  0.55222108  0.55019750     0.27500
H2181       H  0.67164426  0.53051458  0.53394615     0.13200
N2182       N  0.69373746  0.50596327  0.50556572    -0.82500
H2183       H  0.75180008  0.54295543  0.53755628     0.18100
N2184       N  0.72935271  0.56877136  0.56444227    -0.81100
H2185       H  0.68441244  0.49454791  0.51444133     0.33700
H2186       H  0.68315654  0.51471721  0.49523286     0.38200
H2187       H  0.74646109  0.56925341  0.56318246     0.33700
H2188       H  0.72358548  0.58402002  0.55895785     0.30400
H2189       H  0.64643098  0.58422178  0.52956539     0.33700
H2190       H  0.67349527  0.58164069  0.52512349     0.30400
H2191       H  0.67726201  0.55729443  0.63009433     0.38200
H2192       H  0.69458613  0.57869292  0.62665735     0.33700
C2193       C  0.74876483  0.44847235  0.49336284    -0.20000
C2194       C  0.75189623  0.43550111  0.51234741     0.36200
C2195       C  0.75213526  0.41250052  0.51063313    -0.26000
C2196       C  0.74940183  0.40220951  0.49021459     0.02600
C2197       C  0.74635637  0.41508133  0.47113594     0.27400
C2198       C  0.74616113  0.43814523  0.47289199    -0.25100
N2199       N  0.75558633  0.44563297  0.53325819    -0.82500
H2200       H  0.75463318  0.40261078  0.52528311     0.13200
C2201       C  0.74975244  0.37790437  0.48914906     0.02600
N2202       N  0.74330432  0.40466566  0.45015631    -0.81100
H2203       H  0.74388547  0.44812530  0.45826529     0.18100
C2204       C  0.72998933  0.36632855  0.49096148    -0.25900
C2205       C  0.72969690  0.34319333  0.49109258     0.36100
C2206       C  0.74967562  0.33143502  0.48897966    -0.20000
C2207       C  0.76940680  0.34319563  0.48672596    -0.25200
C2208       C  0.76965799  0.36631305  0.48698775     0.27500
H2209       H  0.71476210  0.37542819  0.49257360     0.13200
N2210       N  0.70914353  0.33172320  0.49269236    -0.82500
H2211       H  0.78474738  0.33429215  0.48512752     0.18100
N2212       N  0.79004392  0.37808444  0.48546022    -0.81100
H2213       H  0.69602008  0.34280895  0.49214303     0.33700
H2214       H  0.70843888  0.32437960  0.50825179     0.38200
H2215       H  0.80323858  0.36713387  0.48430221     0.33700
H2216       H  0.78988149  0.38710578  0.47079013     0.30400
H2217       H  0.74100078  0.41646219  0.43782341     0.33700
H2218       H  0.75779808  0.39631011  0.44623667     0.30400
H2219       H  0.74351054  0.44006780  0.54418960     0.38200
H2220       H  0.77083055  0.44033748  0.53909805     0.33700
C2221       C  0.50156660  0.69432982  0.98573217    -0.20000
C2222       C  0.52184108  0.68319206  0.98442296     0.36200
C2223       C  0.52236582  0.66019841  0.98447657    -0.26000
C2224       C  0.50296085  0.64798367  0.98574674     0.02600
C2225       C  0.48255560  0.65898445  0.98652242     0.27400
C2226       C  0.48204935  0.68213419  0.98644332    -0.25100
N2227       N  0.54197476  0.69516801  0.98267887    -0.82500
H2228       H  0.53806332  0.65180962  0.98378377     0.13200
C2229       C  0.50445951  0.62369458  0.98685531     0.02600
N2230       N  0.46252533  0.64658549  0.98749684    -0.81100
H2231       H  0.46646429  0.69068596  0.98745362     0.18100
C2232       C  0.49773287  0.61287870  0.00610114    -0.25900
C2233       C  0.49985240  0.58996802  0.00829278     0.36100
C2234       C  0.50852697  0.57751737  0.99057454    -0.20000
C2235       C  0.51548343  0.58853765  0.97139355    -0.25200
C2236       C  0.51351308  0.61147655  0.96935895     0.27500
H2237       H  0.49120247  0.62246499  0.01964943     0.13200
N2238       N  0.49354256  0.57944159  0.02857153    -0.82500
H2239       H  0.52209809  0.57919697  0.95772563     0.18100
N2240       N  0.52049294  0.62243873  0.94954305    -0.81100
H2241       H  0.48724158  0.59091275  0.03973152     0.33700
H2242       H  0.50776747  0.57298881  0.03570044     0.38200
H2243       H  0.52686933  0.61113363  0.93825932     0.33700
H2244       H  0.50658732  0.62938937  0.94225285     0.30400
H2245       H  0.44896507  0.65712923  0.98807909     0.33700
H2246       H  0.46128797  0.63771989  0.97283210     0.30400
H2247       H  0.54988130  0.69045416  0.96812734     0.38200
H2248       H  0.55197461  0.69068622  0.99590903     0.33700
C2249       C  0.50605722  0.98290953  0.69128650    -0.20000
C2250       C  0.52481022  0.98397888  0.67761076     0.36200
C2251       C  0.52248432  0.98664032  0.65481531    -0.26000
C2252       C  0.50177908  0.98894787  0.64510234     0.02600
C2253       C  0.48292073  0.98856178  0.65868943     0.27400
C2254       C  0.48525214  0.98536255  0.68155040    -0.25100
N2255       N  0.54635756  0.98181933  0.68652438    -0.82500
H2256       H  0.53708037  0.98656301  0.64456169     0.13200
C2257       C  0.50033852  0.99093427  0.62066038     0.02600
N2258       N  0.46152260  0.99164915  0.64927679    -0.81100
H2259       H  0.47072028  0.98524304  0.69187396     0.18100
C2260       C  0.48704200  0.97631501  0.60892670    -0.25900
C2261       C  0.48677690  0.97620689  0.58576032     0.36100
C2262       C  0.50041130  0.99101769  0.57387582    -0.20000
C2263       C  0.51326344  0.00603622  0.58577591    -0.25200
C2264       C  0.51321040  0.00629595  0.60892327     0.27500
H2265       H  0.47731138  0.96437630  0.61790510     0.13200
N2266       N  0.47286625  0.96089309  0.57446500    -0.82500
H2267       H  0.52344617  0.01774498  0.57701445     0.18100
N2268       N  0.52620646  0.02212671  0.62058855    -0.81100
H2269       H  0.46295138  0.95230450  0.58562082     0.33700
H2270       H  0.48303172  0.94918005  0.56703313     0.38200
H2271       H  0.53481020  0.03219720  0.60959081     0.33700
H2272       H  0.51542580  0.03233370  0.62927996     0.30400
H2273       H  0.44938648  0.99086847  0.66147201     0.33700
H2274       H  0.46094147  0.00753575  0.64270457     0.30400
H2275       H  0.55407887  0.96857947  0.67871984     0.38200
H2276       H  0.55516023  0.99604522  0.68260681     0.33700
C2277       C  0.67392253  0.98225616  0.74162739    -0.20000
C2278       C  0.66455653  0.96111254  0.73970254     0.36200
C2279       C  0.64183430  0.95858234  0.74247181    -0.26000
C2280       C  0.62829659  0.97668688  0.74696961     0.02600
C2281       C  0.63765267  0.99772478  0.74932208     0.27400
C2282       C  0.66042643  0.00024339  0.74687999    -0.25100
N2283       N  0.67812098  0.94226415  0.73521269    -0.82500
H2284       H  0.63455367  0.94242599  0.74093261     0.13200
C2285       C  0.60420553  0.97364179  0.74767341     0.02600
N2286       N  0.62393256  0.01649215  0.75366244    -0.81100
H2287       H  0.66760342  0.01643586  0.74850627     0.18100
C2288       C  0.59229935  0.97964953  0.76659075    -0.25900
C2289       C  0.56923452  0.97883686  0.76681426     0.36100
C2290       C  0.55814479  0.97211734  0.74767730    -0.20000
C2291       C  0.57005529  0.96428557  0.72964920    -0.25200
C2292       C  0.59299632  0.96536104  0.72919832     0.27500
H2293       H  0.60102563  0.98530789  0.78101003     0.13200
N2294       N  0.55709553  0.98456192  0.78633593    -0.82500
H2295       H  0.56136039  0.95749569  0.71581059     0.18100
N2296       N  0.60490802  0.95868261  0.70984302    -0.81100
H2297       H  0.56776719  0.98920759  0.79892382     0.33700
H2298       H  0.54733510  0.99823934  0.78281748     0.38200
H2299       H  0.59416305  0.95293100  0.69778448     0.33700
H2300       H  0.61250693  0.97263925  0.70327396     0.30400
H2301       H  0.63339566  0.03073921  0.75499488     0.33700
H2302       H  0.61371210  0.01873951  0.74004679     0.30400
H2303       H  0.68847004  0.93998107  0.74872408     0.38200
H2304       H  0.66858664  0.92805159  0.73401029     0.33700
C2305       C  0.35097692  0.89999309  0.89856987    -0.20000
C2306       C  0.33712179  0.88969899  0.91432817     0.36200
C2307       C  0.32391984  0.90237371  0.92836297    -0.26000
C2308       C  0.32399929  0.92534474  0.92718964     0.02600
C2309       C  0.33778402  0.93588205  0.91180247     0.27400
C2310       C  0.35115726  0.92319801  0.89777822    -0.25100
N2311       N  0.33643044  0.86622259  0.91620483    -0.82500
H2312       H  0.31346731  0.89417327  0.94028728     0.13200
C2313       C  0.30906770  0.93813325  0.94172886     0.02600
N2314       N  0.33796628  0.95947822  0.91032150    -0.81100
H2315       H  0.36156939  0.93189828  0.88641315     0.18100
C2316       C  0.31775540  0.95348317  0.95644403    -0.25900
C2317       C  0.30400494  0.96617187  0.97000137     0.36100
C2318       C  0.28088541  0.96382745  0.96886419    -0.20000
C2319       C  0.27241739  0.94778947  0.95442891    -0.25200
C2320       C  0.28619465  0.93512439  0.94084604     0.27500
H2321       H  0.33537729  0.95561350  0.95745268     0.13200
N2322       N  0.31365818  0.98149988  0.98497277    -0.82500
H2323       H  0.25511318  0.94468721  0.95336385     0.18100
N2324       N  0.27700324  0.91931866  0.92592740    -0.81100
H2325       H  0.32317342  0.99256431  0.97585343     0.33700
H2326       H  0.32409103  0.97282065  0.99551595     0.38200
H2327       H  0.25990827  0.91885868  0.92736279     0.33700
H2328       H  0.28050188  0.92459687  0.90989938     0.30400
H2329       H  0.34911689  0.96476952  0.89831309     0.33700
H2330       H  0.32242116  0.96453093  0.90509597     0.30400
H2331       H  0.32026872  0.86113719  0.91360641     0.38200
H2332       H  0.34079861  0.86192059  0.93228229     0.33700
C2333       C  0.41155354  0.84355759  0.89620765    -0.20000
C2334       C  0.41696719  0.82217173  0.88876325     0.36200
C2335       C  0.43140034  0.80897349  0.90125476    -0.26000
C2336       C  0.43950243  0.81598418  0.92171850     0.02600
C2337       C  0.43418880  0.83732113  0.92908499     0.27400
C2338       C  0.42115955  0.85104419  0.91588707    -0.25100
N2339       N  0.40723691  0.81345272  0.86914495    -0.82500
H2340       H  0.43571961  0.79272912  0.89537830     0.13200
C2341       C  0.45282797  0.80065061  0.93563620     0.02600
N2342       N  0.44136265  0.84476973  0.95033220    -0.81100
H2343       H  0.41796542  0.86759999  0.92152909     0.18100
C2344       C  0.47252366  0.80795129  0.94498128    -0.25900
C2345       C  0.48468550  0.79462911  0.95947536     0.36100
C2346       C  0.47842441  0.77238772  0.96297958    -0.20000
C2347       C  0.45826939  0.76540182  0.95405060    -0.25200
C2348       C  0.44535751  0.77929563  0.94076584     0.27500
H2349       H  0.47818301  0.82445006  0.94141602     0.13200
N2350       N  0.50312539  0.80387187  0.97087458    -0.82500
H2351       H  0.45190248  0.74933110  0.95807331     0.18100
N2352       N  0.42436220  0.77196652  0.93296012    -0.81100
H2353       H  0.50562616  0.82023283  0.96622753     0.33700
H2354       H  0.49930176  0.80404347  0.98766898     0.38200
H2355       H  0.42123251  0.75586871  0.93812200     0.33700
H2356       H  0.41234363  0.78187791  0.94025891     0.30400
H2357       H  0.43602263  0.86083530  0.95330691     0.33700
H2358       H  0.43382803  0.83484214  0.96222260     0.30400
H2359       H  0.39042744  0.81182335  0.87209676     0.38200
H2360       H  0.41321878  0.79764960  0.86586138     0.33700
C2361       C  0.40817426  0.89208911  0.83698041    -0.20000
C2362       C  0.40024235  0.90420403  0.81886557     0.36200
C2363       C  0.41513402  0.91516883  0.80495244    -0.26000
C2364       C  0.43785448  0.91412894  0.80865437     0.02600
C2365       C  0.44582904  0.90121719  0.82630317     0.27400
C2366       C  0.43086337  0.89029155  0.84029721    -0.25100
N2367       N  0.37702768  0.90561708  0.81496124    -0.82500
H2368       H  0.40896476  0.92503252  0.79143762     0.13200
C2369       C  0.45286727  0.92717413  0.79420983     0.02600
N2370       N  0.46903873  0.89947897  0.83007440    -0.81100
H2371       H  0.43685076  0.88100185  0.85429905     0.18100
C2372       C  0.46700435  0.94269560  0.80354883    -0.25900
C2373       C  0.48065032  0.95592500  0.79034536     0.36100
C2374       C  0.48000712  0.95424293  0.76706279    -0.20000
C2375       C  0.46599673  0.93824920  0.75788030    -0.25200
C2376       C  0.45262249  0.92473570  0.77114409     0.27500
H2377       H  0.46737321  0.94469262  0.82126929     0.13200
N2378       N  0.49536450  0.97098535  0.80074734    -0.82500
H2379       H  0.46564938  0.93542443  0.74041854     0.18100
N2380       N  0.43898543  0.90823599  0.76126631    -0.81100
H2381       H  0.48609276  0.98171553  0.81048291     0.33700
H2382       H  0.50572938  0.96200903  0.81111201     0.38200
H2383       H  0.44053815  0.90850369  0.74411927     0.33700
H2384       H  0.44472917  0.89289653  0.76652064     0.30400
H2385       H  0.47217883  0.88952507  0.84377058     0.33700
H2386       H  0.47597041  0.89154160  0.81646999     0.30400
H2387       H  0.37144648  0.88976942  0.81147371     0.38200
H2388       H  0.37384355  0.91518505  0.80100375     0.33700
C2389       C  0.58953158  0.74589930  0.24843858    -0.20000
C2390       C  0.60351843  0.73145577  0.23661882     0.36200
C2391       C  0.62639962  0.73380663  0.23833869    -0.26000
C2392       C  0.63573857  0.74972565  0.25207179     0.02600
C2393       C  0.62191084  0.76373182  0.26431947     0.27400
C2394       C  0.59905017  0.76180630  0.26223793    -0.25100
N2395       N  0.59461302  0.71446190  0.22290723    -0.82500
H2396       H  0.63707889  0.72316450  0.22882332     0.13200
C2397       C  0.66002617  0.75185206  0.25299504     0.02600
N2398       N  0.63115050  0.77982739  0.27887445    -0.81100
H2399       H  0.58864011  0.77291832  0.27149251     0.18100
C2400       C  0.66974158  0.77216834  0.24797307    -0.25900
C2401       C  0.69259865  0.77467840  0.24736369     0.36100
C2402       C  0.70613827  0.75639318  0.25238933    -0.20000
C2403       C  0.69644042  0.73610628  0.25745317    -0.25200
C2404       C  0.67353587  0.73365042  0.25794952     0.27500
H2405       H  0.65944592  0.78608817  0.24374341     0.13200
N2406       N  0.70123932  0.79571009  0.24081129    -0.82500
H2407       H  0.70685591  0.72209197  0.26105945     0.18100
N2408       N  0.66393557  0.71277535  0.26347332    -0.81100
H2409       H  0.69562873  0.79897063  0.22487914     0.33700
H2410       H  0.71829827  0.79558283  0.23969738     0.38200
H2411       H  0.67613979  0.70105819  0.26650352     0.33700
H2412       H  0.65521894  0.71474166  0.27819981     0.30400
H2413       H  0.61876791  0.78895320  0.28657318     0.33700
H2414       H  0.63945767  0.77137161  0.29133163     0.30400
H2415       H  0.58687717  0.70308710  0.23326253     0.38200
H2416       H  0.60714514  0.70588966  0.21481952     0.33700
C2417       C  0.50349326  0.65928176  0.24031621    -0.20000
C2418       C  0.48581822  0.64737682  0.24984675     0.36200
C2419       C  0.48633622  0.62429537  0.24987174    -0.26000
C2420       C  0.50379223  0.61271849  0.24030973     0.02600
C2421       C  0.52105974  0.62439385  0.23017720     0.27400
C2422       C  0.52071524  0.64752699  0.23023294    -0.25100
N2423       N  0.46729433  0.65862407  0.25934423    -0.82500
H2424       H  0.47293950  0.61518922  0.25730349     0.13200
C2425       C  0.50378395  0.58833571  0.24138857     0.02600
N2426       N  0.53905178  0.61270371  0.22023163    -0.81100
H2427       H  0.53423741  0.65638302  0.22275373     0.18100
C2428       C  0.50307854  0.57610473  0.22186224    -0.25900
C2429       C  0.50265187  0.55299327  0.22237789     0.36100
C2430       C  0.50312415  0.54194985  0.24286921    -0.20000
C2431       C  0.50356693  0.55422807  0.26237768    -0.25200
C2432       C  0.50402669  0.57730704  0.26184853     0.27500
H2433       H  0.50260686  0.58466091  0.20619901     0.13200
N2434       N  0.50141960  0.54073411  0.20221742    -0.82500
H2435       H  0.50423578  0.54575493  0.27807625     0.18100
N2436       N  0.50510590  0.58962747  0.28198107    -0.81100
H2437       H  0.50127641  0.55130404  0.18861756     0.33700
H2438       H  0.48641981  0.53242359  0.20220655     0.38200
H2439       H  0.50511651  0.57907387  0.29559541     0.33700
H2440       H  0.52013123  0.59789473  0.28211253     0.30400
H2441       H  0.55038252  0.62368581  0.21340551     0.33700
H2442       H  0.54723660  0.60419972  0.23273825     0.30400
H2443       H  0.45904733  0.66661959  0.24654401     0.38200
H2444       H  0.45615206  0.64743912  0.26615543     0.33700
C2445       C  0.50547882  0.74452231  0.15707299    -0.20000
C2446       C  0.52478485  0.74491439  0.14411606     0.36200
C2447       C  0.52305653  0.74559640  0.12099586    -0.26000
C2448       C  0.50247184  0.74589858  0.11073775     0.02600
C2449       C  0.48324538  0.74540364  0.12361588     0.27400
C2450       C  0.48493263  0.74481807  0.14665090    -0.25100
N2451       N  0.54597459  0.74511390  0.15443463    -0.82500
H2452       H  0.53776018  0.74599531  0.11091020     0.13200
C2453       C  0.50112110  0.74657581  0.08643121     0.02600
N2454       N  0.46210314  0.74544587  0.11318811    -0.81100
H2455       H  0.47010352  0.74446941  0.15655327     0.18100
C2456       C  0.49658961  0.72716025  0.07501171    -0.25900
C2457       C  0.49509754  0.72709232  0.05194165     0.36100
C2458       C  0.49813093  0.74688549  0.04014001    -0.20000
C2459       C  0.50202158  0.76645385  0.05164608    -0.25200
C2460       C  0.50369645  0.76645469  0.07475308     0.27500
H2461       H  0.49433741  0.71201320  0.08416661     0.13200
N2462       N  0.49050388  0.70701730  0.04042485    -0.82500
H2463       H  0.50452514  0.78157780  0.04252425     0.18100
N2464       N  0.50830778  0.78642919  0.08641865    -0.81100
H2465       H  0.48881976  0.69392547  0.05148342     0.33700
H2466       H  0.47534166  0.70891652  0.03264028     0.38200
H2467       H  0.51001332  0.79955564  0.07540212     0.33700
H2468       H  0.49468822  0.79000210  0.09630883     0.30400
H2469       H  0.44957633  0.74478740  0.12498294     0.33700
H2470       H  0.46035088  0.76044875  0.10494168     0.30400
H2471       H  0.54728290  0.75981888  0.16320078     0.38200
H2472       H  0.55844101  0.74531668  0.14255835     0.33700
C2473       C  0.50782226  0.82963189  0.23742659    -0.20000
C2474       C  0.50610333  0.83973049  0.21647404     0.36200
C2475       C  0.50732181  0.86270382  0.21476978    -0.26000
C2476       C  0.51035171  0.87570314  0.23345274     0.02600
C2477       C  0.51226194  0.86577462  0.25433884     0.27400
C2478       C  0.51116718  0.84276249  0.25610417    -0.25100
N2479       N  0.50337173  0.82665684  0.19698504    -0.82500
H2480       H  0.50581893  0.87057522  0.19881432     0.13200
C2481       C  0.51034101  0.89981315  0.23095826     0.02600
N2482       N  0.51458908  0.87913953  0.27367967    -0.81100
H2483       H  0.51242021  0.83508032  0.27216909     0.18100
C2484       C  0.49024074  0.91095927  0.23132924    -0.25900
C2485       C  0.48943908  0.93389061  0.22953023     0.36100
C2486       C  0.50909868  0.94595538  0.22771604    -0.20000
C2487       C  0.52918542  0.93466229  0.22630358    -0.25200
C2488       C  0.52998554  0.91160295  0.22782546     0.27500
H2489       H  0.47509977  0.90179240  0.23311480     0.13200
N2490       N  0.46860573  0.94484118  0.22925197    -0.82500
H2491       H  0.54432090  0.94387661  0.22485559     0.18100
N2492       N  0.55056075  0.90011531  0.22611754    -0.81100
H2493       H  0.46023713  0.94085293  0.24376945     0.33700
H2494       H  0.45956413  0.93871329  0.21602108     0.38200
H2495       H  0.56339297  0.91119846  0.22343618     0.33700
H2496       H  0.55362909  0.89252325  0.24124698     0.30400
H2497       H  0.51527741  0.86929596  0.28780225     0.33700
H2498       H  0.52964455  0.88725855  0.27260620     0.30400
H2499       H  0.51761454  0.81725429  0.19495063     0.38200
H2500       H  0.50210674  0.83666771  0.18302363     0.33700
C2501       C  0.35466098  0.83708431  0.84500555    -0.20000
C2502       C  0.33842753  0.82349646  0.85453599     0.36200
C2503       C  0.32614149  0.80930921  0.84126644    -0.26000
C2504       C  0.32976099  0.80825449  0.81849925     0.02600
C2505       C  0.34687027  0.82081539  0.80904083     0.27400
C2506       C  0.35921920  0.83513049  0.82242795    -0.25100
N2507       N  0.33429042  0.82417386  0.87776275    -0.82500
H2508       H  0.31329247  0.79945865  0.84871887     0.13200
C2509       C  0.31500722  0.79439943  0.80484048     0.02600
N2510       N  0.35138874  0.81916904  0.78586814    -0.81100
H2511       H  0.37178385  0.84541411  0.81509543     0.18100
C2512       C  0.30083805  0.80442271  0.78970666    -0.25900
C2513       C  0.28594977  0.79196911  0.77725646     0.36100
C2514       C  0.28526696  0.76876828  0.77942407    -0.20000
C2515       C  0.29928690  0.75896409  0.79519686    -0.25200
C2516       C  0.31407443  0.77147462  0.80775508     0.27500
H2517       H  0.30111138  0.82213093  0.78775374     0.13200
N2518       N  0.27149772  0.80304053  0.76232393    -0.82500
H2519       H  0.29908366  0.74156521  0.79819304     0.18100
N2520       N  0.32825473  0.76095728  0.82348126    -0.81100
H2521       H  0.28105541  0.81189831  0.75106909     0.33700
H2522       H  0.26206699  0.81425006  0.77133712     0.38200
H2523       H  0.32553142  0.74400075  0.82387103     0.33700
H2524       H  0.34442114  0.76319626  0.81811318     0.30400
H2525       H  0.36440587  0.82947988  0.78147406     0.33700
H2526       H  0.35661282  0.80309149  0.78276319     0.30400
H2527       H  0.31781101  0.82837811  0.88019677     0.38200
H2528       H  0.33675010  0.80839055  0.88414008     0.33700
C2529       C  0.99830039  0.74309411  0.54008351    -0.20000
C2530       C  0.01002388  0.75885418  0.55221712     0.36200
C2531       C  0.01132974  0.75670774  0.57524181    -0.26000
C2532       C  0.00081703  0.73932318  0.58618970     0.02600
C2533       C  0.98841167  0.72404714  0.57409647     0.27400
C2534       C  0.98734399  0.72605623  0.55106951    -0.25100
N2535       N  0.02078245  0.77671933  0.54106812    -0.82500
H2536       H  0.02049549  0.76861354  0.58471891     0.13200
C2537       C  0.00206675  0.73793614  0.61046535     0.02600
N2538       N  0.97686884  0.70669677  0.58528130    -0.81100
H2539       H  0.97812420  0.71418998  0.54161008     0.18100
C2540       C  0.98584389  0.74832930  0.62299506    -0.25900
C2541       C  0.98644028  0.74783779  0.64605203     0.36100
C2542       C  0.00374603  0.73677646  0.65702679    -0.20000
C2543       C  0.01989070  0.72608308  0.64427909    -0.25200
C2544       C  0.01921046  0.72657438  0.62108355     0.27500
H2545       H  0.97258474  0.75693353  0.61478684     0.13200
N2546       N  0.96920062  0.75842386  0.65815232    -0.82500
H2547       H  0.03321898  0.71752411  0.65238785     0.18100
N2548       N  0.03599050  0.71590567  0.60826541    -0.81100
H2549       H  0.95428174  0.75140389  0.65348938     0.33700
H2550       H  0.96891493  0.77501983  0.65364482     0.38200
H2551       H  0.04757590  0.70849719  0.61856075     0.33700
H2552       H  0.02858851  0.70323182  0.59941456     0.30400
H2553       H  0.96827068  0.69706101  0.57400739     0.33700
H2554       H  0.98854342  0.69640850  0.59255888     0.30400
H2555       H  0.00864210  0.78643170  0.53375495     0.38200
H2556       H  0.02892640  0.78672901  0.55235353     0.33700
C2557       C  0.20773757  0.75102125  0.75177419    -0.20000
C2558       C  0.19375250  0.74899811  0.77026254     0.36200
C2559       C  0.17095081  0.74696159  0.76699386    -0.26000
C2560       C  0.16203030  0.74706474  0.74571549     0.02600
C2561       C  0.17580745  0.75048300  0.72741572     0.27400
C2562       C  0.19850124  0.75237530  0.73063382    -0.25100
N2563       N  0.20266786  0.74854218  0.79213659    -0.82500
H2564       H  0.16010024  0.74491177  0.78102337     0.13200
C2565       C  0.13812540  0.74413554  0.74280135     0.02600
N2566       N  0.16667591  0.75205132  0.70566629    -0.81100
H2567       H  0.20913926  0.75442823  0.71645009     0.18100
C2568       C  0.12463688  0.76272619  0.74278866    -0.25900
C2569       C  0.10185327  0.76072076  0.74074029     0.36100
C2570       C  0.09221750  0.73970819  0.73874134    -0.20000
C2571       C  0.10584495  0.72109103  0.73782355    -0.25200
C2572       C  0.12880566  0.72311595  0.73992282     0.27500
H2573       H  0.13183731  0.77889835  0.74456615     0.13200
N2574       N  0.08851150  0.78014634  0.74052953    -0.82500
H2575       H  0.09853588  0.70495318  0.73628386     0.18100
N2576       N  0.14263414  0.70394640  0.73978152    -0.81100
H2577       H  0.09372945  0.79010949  0.72747803     0.33700
H2578       H  0.09119472  0.78866746  0.75519989     0.38200
H2579       H  0.13320850  0.68974517  0.73785030     0.33700
H2580       H  0.15286685  0.70494934  0.72597115     0.30400
H2581       H  0.17903099  0.75499221  0.69403556     0.33700
H2582       H  0.15986609  0.73680965  0.70176957     0.30400
H2583       H  0.21234336  0.73443134  0.79364932     0.38200
H2584       H  0.19010656  0.74714373  0.80382816     0.33700
C2585       C  0.25517159  0.48865652  0.65826561    -0.20000
C2586       C  0.27457907  0.49409211  0.64660420     0.36200
C2587       C  0.27457890  0.49375914  0.62348013    -0.26000
C2588       C  0.25579549  0.48775118  0.61176505     0.02600
C2589       C  0.23659304  0.48174365  0.62326210     0.27400
C2590       C  0.23649954  0.48211765  0.64643912    -0.25100
N2591       N  0.29430938  0.49963037  0.65824659    -0.82500
H2592       H  0.28932973  0.49814602  0.61447571     0.13200
C2593       C  0.25642571  0.48847262  0.58739811     0.02600
N2594       N  0.21722033  0.47564315  0.61132860    -0.81100
H2595       H  0.22162801  0.47783148  0.65527966     0.18100
C2596       C  0.25686204  0.46882254  0.57541549    -0.25900
C2597       C  0.25807446  0.46909103  0.55231164     0.36100
C2598       C  0.25888122  0.48935130  0.54096089    -0.20000
C2599       C  0.25806344  0.50898164  0.55303496    -0.25200
C2600       C  0.25695961  0.50874575  0.57615063     0.27500
H2601       H  0.25630515  0.45322013  0.58404882     0.13200
N2602       N  0.25780183  0.44878600  0.54044901    -0.82500
H2603       H  0.25839600  0.52458148  0.54442263     0.18100
N2604       N  0.25636974  0.52898278  0.58830516    -0.81100
H2605       H  0.24342345  0.44038935  0.54464547     0.33700
H2606       H  0.27115119  0.43932104  0.54567595     0.38200
H2607       H  0.25704465  0.54245745  0.57760392     0.33700
H2608       H  0.24120665  0.52982332  0.59637781     0.30400
H2609       H  0.20449998  0.47163377  0.62221331     0.33700
H2610       H  0.21199294  0.48943438  0.60246304     0.30400
H2611       H  0.29929439  0.48565293  0.66696523     0.38200
H2612       H  0.30699944  0.50335035  0.64722537     0.33700
C2613       C  0.25216358  0.57780252  0.74247019    -0.20000
C2614       C  0.26033824  0.59056508  0.72474446     0.36200
C2615       C  0.26144114  0.61353684  0.72688003    -0.26000
C2616       C  0.25444252  0.62398772  0.74621915     0.02600
C2617       C  0.24606250  0.61135828  0.76379520     0.27400
C2618       C  0.24484291  0.58844399  0.76167438    -0.25100
N2619       N  0.26726741  0.58026604  0.70459808    -0.82500
H2620       H  0.26759751  0.62340918  0.71333215     0.13200
C2621       C  0.25568961  0.64823366  0.74779314     0.02600
N2622       N  0.23918239  0.62185651  0.78386258    -0.81100
H2623       H  0.23869773  0.57880643  0.77539030     0.18100
C2624       C  0.23629962  0.66028822  0.75089274    -0.25900
C2625       C  0.23675131  0.68325400  0.75281710     0.36100
C2626       C  0.25701335  0.69434638  0.75141189    -0.20000
C2627       C  0.27642402  0.68229990  0.74829930    -0.25200
C2628       C  0.27597167  0.65929325  0.74647431     0.27500
H2629       H  0.22077068  0.65168504  0.75189916     0.13200
N2630       N  0.21678614  0.69529796  0.75659560    -0.82500
H2631       H  0.29192803  0.69091627  0.74705417     0.18100
N2632       N  0.29597374  0.64709553  0.74340231    -0.81100
H2633       H  0.20329302  0.68471145  0.75691297     0.33700
H2634       H  0.21783248  0.70218765  0.77228552     0.38200
H2635       H  0.30942658  0.65771140  0.74261315     0.33700
H2636       H  0.29821159  0.63722705  0.75733701     0.30400
H2637       H  0.23335019  0.61024902  0.79516885     0.33700
H2638       H  0.25303872  0.62902598  0.79094261     0.30400
H2639       H  0.25341295  0.57317841  0.69743161     0.38200
H2640       H  0.27309482  0.59198079  0.69339979     0.33700
C2641       C  0.25206829  0.66048382  0.49351555    -0.20000
C2642       C  0.25951526  0.65015330  0.47391317     0.36200
C2643       C  0.26009008  0.62706568  0.47268669    -0.26000
C2644       C  0.25312932  0.61404774  0.49038548     0.02600
C2645       C  0.24486512  0.62414215  0.50954626     0.27400
C2646       C  0.24442113  0.64724939  0.51095112    -0.25100
N2647       N  0.26636352  0.66305818  0.45524851    -0.82500
H2648       H  0.26613968  0.61912830  0.45790023     0.13200
C2649       C  0.25514299  0.58980771  0.48888518     0.02600
N2650       N  0.23727308  0.61082658  0.52760349    -0.81100
H2651       H  0.23848845  0.65492547  0.52591122     0.18100
C2652       C  0.27321466  0.57936064  0.49865635    -0.25900
C2653       C  0.27547645  0.55634093  0.49807935     0.36100
C2654       C  0.25927404  0.54366210  0.48763076    -0.20000
C2655       C  0.24155780  0.55414809  0.47729441    -0.25200
C2656       C  0.23929149  0.57715798  0.47784381     0.27500
H2657       H  0.28548760  0.58922676  0.50686001     0.13200
N2658       N  0.29413194  0.54579472  0.50798471    -0.82500
H2659       H  0.22950130  0.54434786  0.46875319     0.18100
N2660       N  0.22100371  0.58773798  0.46730390    -0.81100
H2661       H  0.30463716  0.55748160  0.51481891     0.33700
H2662       H  0.28845842  0.53608677  0.52101569     0.38200
H2663       H  0.21092435  0.57609589  0.45978046     0.33700
H2664       H  0.21153875  0.59522536  0.47957462     0.30400
H2665       H  0.23185069  0.62072770  0.54058212     0.33700
H2666       H  0.22361009  0.60203366  0.52216950     0.30400
H2667       H  0.25257601  0.67149836  0.44943995     0.38200
H2668       H  0.27168165  0.65293907  0.44239488     0.33700
C2669       C  0.25403218  0.74599526  0.58510027    -0.20000
C2670       C  0.23758240  0.73637893  0.59858061     0.36200
C2671       C  0.23876409  0.73872662  0.62161635    -0.26000
C2672       C  0.25609070  0.75011478  0.63144841     0.02600
C2673       C  0.27249177  0.75963377  0.61823857     0.27400
C2674       C  0.27126887  0.75757035  0.59527046    -0.25100
N2675       N  0.21968327  0.72443157  0.58901724    -0.82500
H2676       H  0.22635186  0.73126989  0.63203611     0.13200
C2677       C  0.25780544  0.75054449  0.65569410     0.02600
N2678       N  0.29060135  0.77090289  0.62826273    -0.81100
H2679       H  0.28405699  0.76496125  0.58529193     0.18100
C2680       C  0.26909117  0.73344656  0.66625157    -0.25900
C2681       C  0.27082218  0.73290873  0.68923458     0.36100
C2682       C  0.26159161  0.74993076  0.70180355    -0.20000
C2683       C  0.25039520  0.76715377  0.69132434    -0.25200
C2684       C  0.24828607  0.76757042  0.66825321     0.27500
H2685       H  0.27628979  0.72029957  0.65660288     0.13200
N2686       N  0.28167535  0.71490108  0.69986036    -0.82500
H2687       H  0.24276337  0.77987405  0.70121114     0.18100
N2688       N  0.23599965  0.78473164  0.65759977    -0.81100
H2689       H  0.29774561  0.71407782  0.69382920     0.33700
H2690       H  0.27362824  0.70041311  0.69545456     0.38200
H2691       H  0.22965368  0.79567511  0.66925404     0.33700
H2692       H  0.24686606  0.79373052  0.64776375     0.30400
H2693       H  0.30154927  0.77660794  0.61625351     0.33700
H2694       H  0.28437796  0.78479918  0.63621943     0.30400
H2695       H  0.22611772  0.70984131  0.58260170     0.38200
H2696       H  0.20838706  0.71974475  0.60114506     0.33700
C2697       C  0.16865106  0.74821603  0.49915585    -0.20000
C2698       C  0.15722360  0.76827687  0.49619905     0.36200
C2699       C  0.13422320  0.76812204  0.49418561    -0.26000
C2700       C  0.12244794  0.74841194  0.49526728     0.02600
C2701       C  0.13369057  0.72845448  0.49881741     0.27400
C2702       C  0.15669593  0.72855681  0.50080073    -0.25100
N2703       N  0.16897456  0.78873797  0.49552652    -0.82500
H2704       H  0.12539363  0.78342126  0.49182461     0.13200
C2705       C  0.09823661  0.74889469  0.49315904     0.02600
N2706       N  0.12170997  0.70814584  0.49994361    -0.81100
H2707       H  0.16537728  0.71316415  0.50308676     0.18100
C2708       C  0.08859275  0.74623069  0.47238681    -0.25900
C2709       C  0.06559029  0.74545584  0.47005925     0.36100
C2710       C  0.05213067  0.74730301  0.48894223    -0.20000
C2711       C  0.06191212  0.75030503  0.50960157    -0.25200
C2712       C  0.08479958  0.75141470  0.51187792     0.27500
H2713       H  0.09907087  0.74437104  0.45805401     0.13200
N2714       N  0.05592828  0.74211951  0.44878270    -0.82500
H2715       H  0.05164624  0.75157800  0.52410154     0.18100
N2716       N  0.09447008  0.75516722  0.53309514    -0.81100
H2717       H  0.06810242  0.74110215  0.43664746     0.33700
H2718       H  0.04800982  0.72689585  0.44909230     0.38200
H2719       H  0.08228048  0.75715376  0.54509617     0.33700
H2720       H  0.10332315  0.74109384  0.53743856     0.30400
H2721       H  0.13243222  0.69490639  0.50225290     0.33700
H2722       H  0.11162041  0.70871564  0.51388286     0.30400
H2723       H  0.17616224  0.79099416  0.51096208     0.38200
H2724       H  0.15816910  0.80190295  0.49318898     0.33700
C2725       C  0.51039569  0.78878758  0.49648680    -0.20000
C2726       C  0.51231048  0.80167944  0.51562846     0.36200
C2727       C  0.51169219  0.82470911  0.51401680    -0.26000
C2728       C  0.50850492  0.83523608  0.49365103     0.02600
C2729       C  0.50626895  0.82231993  0.47448602     0.27400
C2730       C  0.50753277  0.79929747  0.47609125    -0.25100
N2731       N  0.51396586  0.79148547  0.53683566    -0.82500
H2732       H  0.51345453  0.83442291  0.52883019     0.13200
C2733       C  0.50748035  0.85971912  0.49259313     0.02600
N2734       N  0.50227622  0.83260537  0.45353334    -0.81100
H2735       H  0.50598510  0.78947241  0.46132646     0.18100
C2736       C  0.52132966  0.87101576  0.47796218    -0.25900
C2737       C  0.52054591  0.89404424  0.47592280     0.36100
C2738       C  0.50610626  0.90632704  0.48956917    -0.20000
C2739       C  0.49237885  0.89488740  0.50436429    -0.25200
C2740       C  0.49270349  0.87180593  0.50581127     0.27500
H2741       H  0.53274311  0.86173614  0.46788510     0.13200
N2742       N  0.53430553  0.90480442  0.45992725    -0.82500
H2743       H  0.48113929  0.90395139  0.51481441     0.18100
N2744       N  0.47787852  0.86058564  0.52047084    -0.81100
H2745       H  0.54448420  0.89345710  0.45195918     0.33700
H2746       H  0.52403512  0.91133325  0.44779152     0.38200
H2747       H  0.46814331  0.87183404  0.52911176     0.33700
H2748       H  0.46722634  0.85124542  0.51083653     0.30400
H2749       H  0.50108750  0.82081179  0.44110550     0.33700
H2750       H  0.48700045  0.84041262  0.45445513     0.30400
H2751       H  0.52839652  0.79697784  0.54425527     0.38200
H2752       H  0.50070159  0.79679519  0.54642567     0.33700
C2753       C  0.53379561  0.71041818  0.52071531    -0.20000
C2754       C  0.53095206  0.68733830  0.51882276     0.36200
C2755       C  0.54392113  0.67271643  0.53127876    -0.26000
C2756       C  0.55984159  0.68045443  0.54592277     0.02600
C2757       C  0.56268322  0.70333999  0.54818294     0.27400
C2758       C  0.54982453  0.71796553  0.53562369    -0.25100
N2759       N  0.51475442  0.67859636  0.50424395    -0.82500
H2760       H  0.54157305  0.65517095  0.52942246     0.13200
C2761       C  0.57354937  0.66470477  0.55894409     0.02600
N2762       N  0.57847222  0.71169157  0.56358051    -0.81100
H2763       H  0.55235595  0.73523754  0.53822651     0.18100
C2764       C  0.59649212  0.66558556  0.55688163    -0.25900
C2765       C  0.61021216  0.65327473  0.57085133     0.36100
C2766       C  0.60086660  0.63955119  0.58711197    -0.20000
C2767       C  0.57796288  0.63746895  0.58827709    -0.25200
C2768       C  0.56416328  0.65007836  0.57446832     0.27500
H2769       H  0.60372030  0.67654089  0.54478388     0.13200
N2770       N  0.63367068  0.65519511  0.56914768    -0.82500
H2771       H  0.57083232  0.62703945  0.60087587     0.18100
N2772       N  0.54072060  0.64882402  0.57682654    -0.81100
H2773       H  0.63797616  0.66608945  0.55651604     0.33700
H2774       H  0.63986970  0.63979829  0.56468684     0.38200
H2775       H  0.53646746  0.63735340  0.58895597     0.33700
H2776       H  0.53517252  0.66411055  0.58239093     0.30400
H2777       H  0.57878432  0.72886795  0.56327068     0.33700
H2778       H  0.57331398  0.70711715  0.57937724     0.30400
H2779       H  0.52268517  0.66833713  0.49293873     0.38200
H2780       H  0.50388805  0.66900712  0.51351767     0.33700
C2781       C  0.50466253  0.73497224  0.44614361    -0.20000
C2782       C  0.48515688  0.72960944  0.43486831     0.36200
C2783       C  0.48453280  0.73099720  0.41184783    -0.26000
C2784       C  0.50301930  0.73765813  0.39967497     0.02600
C2785       C  0.52264762  0.74267107  0.41090208     0.27400
C2786       C  0.52323775  0.74130316  0.43402749    -0.25100
N2787       N  0.46591396  0.72223546  0.44630314    -0.82500
H2788       H  0.46941280  0.72707551  0.40339686     0.13200
C2789       C  0.50163018  0.73943801  0.37523131     0.02600
N2790       N  0.54190810  0.74905192  0.39875146    -0.81100
H2791       H  0.53816785  0.74547517  0.44269566     0.18100
C2792       C  0.50650025  0.75954114  0.36494192    -0.25900
C2793       C  0.50603844  0.76178533  0.34187002     0.36100
C2794       C  0.50062232  0.74343668  0.32869399    -0.20000
C2795       C  0.49509317  0.72350741  0.33910944    -0.25200
C2796       C  0.49569953  0.72127021  0.36216910     0.27500
H2797       H  0.51063719  0.77359253  0.37502416     0.13200
N2798       N  0.51087291  0.78267400  0.33186686    -0.82500
H2799       H  0.49092601  0.70935724  0.32918766     0.18100
N2800       N  0.49079357  0.70048062  0.37234445    -0.81100
H2801       H  0.51479102  0.79432606  0.34384449     0.33700
H2802       H  0.49655282  0.78823212  0.32420915     0.38200
H2803       H  0.48666234  0.68880600  0.36046758     0.33700
H2804       H  0.50511722  0.69484583  0.37994188     0.30400
H2805       H  0.55490340  0.75230991  0.40944302     0.33700
H2806       H  0.54671299  0.73564521  0.38912704     0.30400
H2807       H  0.47013728  0.70868363  0.45601591     0.38200
H2808       H  0.46031286  0.73480132  0.45657728     0.33700
C2809       C  0.33966250  0.74316417  0.50204606    -0.20000
C2810       C  0.35226936  0.73104567  0.48665851     0.36200
C2811       C  0.37515279  0.72988174  0.48885254    -0.26000
C2812       C  0.38597105  0.74044704  0.50617848     0.02600
C2813       C  0.37356546  0.75259537  0.52159937     0.27400
C2814       C  0.35061998  0.75392178  0.51931006    -0.25100
N2815       N  0.34206077  0.72006608  0.46856357    -0.82500
H2816       H  0.38459386  0.72084051  0.47671164     0.13200
C2817       C  0.41034149  0.73926942  0.50732660     0.02600
N2818       N  0.38429496  0.76336205  0.53963301    -0.81100
H2819       H  0.34125271  0.76319223  0.53131344     0.18100
C2820       C  0.42252488  0.75880748  0.50724130    -0.25900
C2821       C  0.44551488  0.75838021  0.50654193     0.36100
C2822       C  0.45668312  0.73809402  0.50547525    -0.20000
C2823       C  0.44459944  0.71851276  0.50643208    -0.25200
C2824       C  0.42151693  0.71888813  0.50745654     0.27500
H2825       H  0.41413912  0.77453096  0.50726967     0.13200
N2826       N  0.45746898  0.77861507  0.50717754    -0.82500
H2827       H  0.45316178  0.70290297  0.50574171     0.18100
N2828       N  0.40935331  0.69869139  0.50842920    -0.81100
H2829       H  0.45319608  0.78687757  0.52164647     0.33700
H2830       H  0.45252969  0.78829332  0.49382698     0.38200
H2831       H  0.41999123  0.68518624  0.50829065     0.33700
H2832       H  0.40108603  0.69829392  0.52354093     0.30400
H2833       H  0.37287836  0.77169580  0.54944494     0.33700
H2834       H  0.39130468  0.75117456  0.54954621     0.30400
H2835       H  0.34597894  0.70335490  0.46956023     0.38200
H2836       H  0.34877568  0.72626944  0.45395233     0.33700
C2837       C  0.04245894  0.52289468  0.21392761    -0.20000
C2838       C  0.06533129  0.51819336  0.21276050     0.36200
C2839       C  0.07920815  0.53130780  0.19948230    -0.26000
C2840       C  0.07106238  0.54951500  0.18790747     0.02600
C2841       C  0.04881745  0.55529005  0.19032769     0.27400
C2842       C  0.03489621  0.54215267  0.20331515    -0.25100
N2843       N  0.07443992  0.49996476  0.22479057    -0.82500
H2844       H  0.09645641  0.52719871  0.19797119     0.13200
C2845       C  0.08563079  0.56235446  0.17287591     0.02600
N2846       N  0.04045496  0.57466511  0.17960332    -0.81100
H2847       H  0.01822812  0.54768846  0.20540855     0.18100
C2848       C  0.08065116  0.56303707  0.15035958    -0.25900
C2849       C  0.09260162  0.57639289  0.13570143     0.36100
C2850       C  0.10976180  0.58972081  0.14376325    -0.20000
C2851       C  0.11552577  0.58815723  0.16609591    -0.25200
C2852       C  0.10353055  0.57469605  0.18078414     0.27500
H2853       H  0.06714307  0.55325390  0.14425936     0.13200
N2854       N  0.08735792  0.57648241  0.11263833    -0.82500
H2855       H  0.12876670  0.59822042  0.17230201     0.18100
N2856       N  0.10899417  0.57404820  0.20377416    -0.81100
H2857       H  0.07432569  0.56583031  0.10941029     0.33700
H2858       H  0.10099231  0.57033132  0.10413529     0.38200
H2859       H  0.12257161  0.58402325  0.20692463     0.33700
H2860       H  0.09579815  0.58079055  0.21251331     0.30400
H2861       H  0.02369665  0.57663780  0.18279844     0.33700
H2862       H  0.04834865  0.58824346  0.18648084     0.30400
H2863       H  0.07307428  0.50351014  0.24156016     0.38200
H2864       H  0.09121406  0.49830889  0.22149130     0.33700
C2865       C  0.41988082  0.74385609  0.23989202    -0.20000
C2866       C  0.40661573  0.76291081  0.24069935     0.36200
C2867       C  0.38365218  0.76062875  0.24091779    -0.26000
C2868       C  0.37393731  0.73980991  0.23972506     0.02600
C2869       C  0.38712646  0.72090349  0.23808529     0.27400
C2870       C  0.41001045  0.72309569  0.23841790    -0.25100
N2871       N  0.41641617  0.78432743  0.24221169    -0.82500
H2872       H  0.37326352  0.77505889  0.24212339     0.13200
C2873       C  0.34987876  0.73785548  0.24096090     0.02600
N2874       N  0.37717764  0.69960138  0.23605239    -0.81100
H2875       H  0.42023813  0.70852988  0.23744997     0.18100
C2876       C  0.33771973  0.73689313  0.22148382    -0.25900
C2877       C  0.31473585  0.73520750  0.22212193     0.36100
C2878       C  0.30393850  0.73384392  0.24271399    -0.20000
C2879       C  0.31627707  0.73455102  0.26216525    -0.25200
C2880       C  0.33918214  0.73663584  0.26149200     0.27500
H2881       H  0.34618797  0.73794440  0.20579391     0.13200
N2882       N  0.30233658  0.73577347  0.20203857    -0.82500
H2883       H  0.30795399  0.73376584  0.27795027     0.18100
N2884       N  0.35162862  0.73791330  0.28151453    -0.81100
H2885       H  0.31280761  0.73678665  0.18839749     0.33700
H2886       H  0.29299463  0.75021161  0.20210074     0.38200
H2887       H  0.34122368  0.73715752  0.29522441     0.33700
H2888       H  0.36174135  0.72403790  0.28229564     0.30400
H2889       H  0.38920724  0.68740610  0.23460853     0.33700
H2890       H  0.36862393  0.69635330  0.25064800     0.30400
H2891       H  0.42412125  0.78761471  0.22716052     0.38200
H2892       H  0.40430791  0.79638889  0.24408342     0.33700
C2893       C  0.25065368  0.73985498  0.29717504    -0.20000
C2894       C  0.25230955  0.76025300  0.30806899     0.36200
C2895       C  0.25358507  0.76086946  0.33107992    -0.26000
C2896       C  0.25293276  0.74148774  0.34349335     0.02600
C2897       C  0.25060199  0.72107766  0.33282008     0.27400
C2898       C  0.24948444  0.72045395  0.30968290    -0.25100
N2899       N  0.25210411  0.78044146  0.29587726    -0.82500
H2900       H  0.25488258  0.77658575  0.33933319     0.13200
C2901       C  0.25364838  0.74301121  0.36774542     0.02600
N2902       N  0.24908979  0.70117146  0.34553204    -0.81100
H2903       H  0.24818282  0.70478091  0.30136643     0.18100
C2904       C  0.23400912  0.74629326  0.37931085    -0.25900
C2905       C  0.23382765  0.74799434  0.40237830     0.36100
C2906       C  0.25380743  0.74645207  0.41405319    -0.20000
C2907       C  0.27350409  0.74329357  0.40233553    -0.25200
C2908       C  0.27364609  0.74178136  0.37923353     0.27500
H2909       H  0.21874802  0.74735875  0.37025870     0.13200
N2910       N  0.21339262  0.75075669  0.41396778    -0.82500
H2911       H  0.28885138  0.74222266  0.41123441     0.18100
N2912       N  0.29398977  0.73950799  0.36737078    -0.81100
H2913       H  0.20032172  0.75184683  0.40290995     0.33700
H2914       H  0.21075755  0.73657172  0.42336016     0.38200
H2915       H  0.30724142  0.73933037  0.37825538     0.33700
H2916       H  0.29393365  0.72422566  0.35956898     0.30400
H2917       H  0.24701619  0.68762890  0.33519138     0.33700
H2918       H  0.26405528  0.69885788  0.35355954     0.30400
H2919       H  0.23880880  0.78987840  0.30133757     0.38200
H2920       H  0.26650730  0.78901656  0.29943883     0.33700
C2921       C  0.25685987  0.78972343  0.24203086    -0.20000
C2922       C  0.27755701  0.80010391  0.24345054     0.36200
C2923       C  0.27878984  0.82307046  0.24471450    -0.26000
C2924       C  0.25977554  0.83596053  0.24407627     0.02600
C2925       C  0.23913095  0.82582350  0.24191575     0.27400
C2926       C  0.23785956  0.80277402  0.24093430    -0.25100
N2927       N  0.29742779  0.78749199  0.24303292    -0.82500
H2928       H  0.29469501  0.83090917  0.24594160     0.13200
C2929       C  0.26169319  0.86014811  0.24508609     0.02600
N2930       N  0.21956693  0.83901998  0.24093791    -0.81100
H2931       H  0.22193368  0.79496713  0.23997976     0.18100
C2932       C  0.25899844  0.87235651  0.22573931    -0.25900
C2933       C  0.25988260  0.89540383  0.22600456     0.36100
C2934       C  0.26316799  0.90646553  0.24619949    -0.20000
C2935       C  0.26664699  0.89411314  0.26546330    -0.25200
C2936       C  0.26581116  0.87099731  0.26511084     0.27500
H2937       H  0.25616695  0.86380916  0.21037821     0.13200
N2938       N  0.25761686  0.90759275  0.20581408    -0.82500
H2939       H  0.26927820  0.90251802  0.28093277     0.18100
N2940       N  0.26875368  0.85848752  0.28499827    -0.81100
H2941       H  0.25519386  0.89698557  0.19252901     0.33700
H2942       H  0.27248019  0.91566346  0.20287232     0.38200
H2943       H  0.27167879  0.86893197  0.29830611     0.33700
H2944       H  0.25399211  0.85039295  0.28836941     0.30400
H2945       H  0.20571616  0.82907267  0.23918116     0.33700
H2946       H  0.21790246  0.84704519  0.25605551     0.30400
H2947       H  0.30683346  0.79266502  0.22955916     0.38200
H2948       H  0.30622835  0.79092866  0.25736076     0.33700
C2949       C  0.22607195  0.71293914  0.22199681    -0.20000
C2950       C  0.22705297  0.68981121  0.22507525     0.36200
C2951       C  0.21406343  0.67573403  0.21223300    -0.26000
C2952       C  0.19966757  0.68410328  0.19637452     0.02600
C2953       C  0.19805439  0.70702700  0.19347375     0.27400
C2954       C  0.21109822  0.72115164  0.20627501    -0.25100
N2955       N  0.24142638  0.68046248  0.24121403    -0.82500
H2956       H  0.21528929  0.65811693  0.21462137     0.13200
C2957       C  0.18680325  0.66884680  0.18229859     0.02600
N2958       N  0.18331691  0.71587962  0.17725182    -0.81100
H2959       H  0.20931747  0.73851960  0.20350803     0.18100
C2960       C  0.16383966  0.66846599  0.18412365    -0.25900
C2961       C  0.15100767  0.65629431  0.16928430     0.36100
C2962       C  0.16134749  0.64435382  0.15224338    -0.20000
C2963       C  0.18431135  0.64391210  0.15104973    -0.25200
C2964       C  0.19717724  0.65606349  0.16590761     0.27500
H2965       H  0.15591612  0.67821270  0.19678179     0.13200
N2966       N  0.12746586  0.65656875  0.17093521    -0.82500
H2967       H  0.19217830  0.63524139  0.13766558     0.18100
N2968       N  0.22068297  0.65623344  0.16384428    -0.81100
H2969       H  0.12239912  0.66624014  0.18422686     0.33700
H2970       H  0.12233375  0.64052909  0.17434805     0.38200
H2971       H  0.22574444  0.64594792  0.15101964     0.33700
H2972       H  0.22540359  0.67216872  0.15945072     0.30400
H2973       H  0.18385688  0.73305169  0.17716585     0.33700
H2974       H  0.18887118  0.71075483  0.16178041     0.30400
H2975       H  0.25218140  0.66968876  0.23320786     0.38200
H2976       H  0.23193900  0.67132076  0.25229813     0.33700
C2977       C  0.30880753  0.50061654  0.99328923    -0.20000
C2978       C  0.31990880  0.50089935  0.97282485     0.36200
C2979       C  0.34287596  0.49885088  0.97230802    -0.26000
C2980       C  0.35488202  0.49702085  0.99183320     0.02600
C2981       C  0.34392423  0.49703018  0.01227275     0.27400
C2982       C  0.32096665  0.49879458  0.01281119    -0.25100
N2983       N  0.30791901  0.50391706  0.95273032    -0.82500
H2984       H  0.35152635  0.49915411  0.95668515     0.13200
C2985       C  0.37906073  0.49595363  0.99078997     0.02600
N2986       N  0.35620905  0.49509259  0.03234986    -0.81100
H2987       H  0.31249320  0.49821379  0.02851600     0.18100
C2988       C  0.39112525  0.51429113  0.99740790    -0.25900
C2989       C  0.41414050  0.51395611  0.99725228     0.36100
C2990       C  0.42531916  0.49460323  0.99066249    -0.20000
C2991       C  0.41307842  0.47638035  0.98357978    -0.25200
C2992       C  0.39001148  0.47684672  0.98368450     0.27500
H2993       H  0.38247138  0.52897517  0.00262352     0.13200
N2994       N  0.42611313  0.53329168  0.00351086    -0.82500
H2995       H  0.42150310  0.46154998  0.97843549     0.18100
N2996       N  0.37764013  0.45795303  0.97692965    -0.81100
H2997       H  0.41539109  0.54588659  0.00821046     0.33700
H2998       H  0.43448715  0.53894829  0.98954992     0.38200
H2999       H  0.38816805  0.44523745  0.97211813     0.33700
H3000       H  0.36895323  0.45222892  0.99066661     0.30400
H3001       H  0.34570614  0.49548349  0.04599734     0.33700
H3002       H  0.36373463  0.47963289  0.03239182     0.30400
H3003       H  0.30146381  0.51982672  0.95308287     0.38200
H3004       H  0.31846405  0.50326628  0.93912569     0.33700
C3005       C  0.24814434  0.50090402  0.94737186    -0.20000
C3006       C  0.23726219  0.48389490  0.93618678     0.36200
C3007       C  0.23703308  0.48386886  0.91301818    -0.26000
C3008       C  0.24735398  0.50063913  0.90095884     0.02600
C3009       C  0.25738105  0.51819029  0.91218959     0.27400
C3010       C  0.25741871  0.51828503  0.93536547    -0.25100
N3011       N  0.22671410  0.46663956  0.94843365    -0.82500
H3012       H  0.22910492  0.47057641  0.90429282     0.13200
C3013       C  0.24829569  0.49916670  0.87658786     0.02600
N3014       N  0.26798564  0.53547129  0.89999931    -0.81100
H3015       H  0.26542022  0.53151306  0.94410259     0.18100
C3016       C  0.23500864  0.51294010  0.86384703    -0.25900
C3017       C  0.23532739  0.51186381  0.84068818     0.36100
C3018       C  0.24987687  0.49697402  0.82993172    -0.20000
C3019       C  0.26316268  0.48321368  0.84298009    -0.25200
C3020       C  0.26245458  0.48412627  0.86612781     0.27500
H3021       H  0.22408206  0.52437391  0.87207999     0.13200
N3022       N  0.22088699  0.52587662  0.82826276    -0.82500
H3023       H  0.27423236  0.47166927  0.83513381     0.18100
N3024       N  0.27613702  0.46989457  0.87912590    -0.81100
H3025       H  0.21241747  0.53666344  0.83865227     0.33700
H3026       H  0.20896349  0.51584061  0.82114071     0.38200
H3027       H  0.28552727  0.45964970  0.86898749     0.33700
H3028       H  0.28719358  0.47978239  0.88770496     0.30400
H3029       H  0.27461359  0.54709927  0.91072095     0.33700
H3030       H  0.28121252  0.52850290  0.89148418     0.30400
H3031       H  0.21399248  0.47373853  0.95758835     0.38200
H3032       H  0.21947254  0.45533344  0.93777273     0.33700
C3033       C  0.23427802  0.52113174  0.02714350    -0.20000
C3034       C  0.21285064  0.51440534  0.03357000     0.36200
C3035       C  0.20081181  0.52697143  0.04886216    -0.26000
C3036       C  0.20845972  0.54728756  0.05651339     0.02600
C3037       C  0.22926638  0.55465225  0.04947274     0.27400
C3038       C  0.24190918  0.54154660  0.03509803    -0.25100
N3039       N  0.20300657  0.49511907  0.02421829    -0.82500
H3040       H  0.18476129  0.52133934  0.05410745     0.13200
C3041       C  0.19344377  0.56165248  0.06977336     0.02600
N3042       N  0.23719205  0.57581026  0.05628321    -0.81100
H3043       H  0.25729394  0.54816235  0.02929437     0.18100
C3044       C  0.20039157  0.57084835  0.08982813    -0.25900
C3045       C  0.18690036  0.58559932  0.10167370     0.36100
C3046       C  0.16593221  0.59112746  0.09357767    -0.20000
C3047       C  0.15867486  0.58096781  0.07414868    -0.25200
C3048       C  0.17223409  0.56680085  0.06197609     0.27500
H3049       H  0.21654138  0.56689032  0.09612154     0.13200
N3050       N  0.19494100  0.59544207  0.12140278    -0.82500
H3051       H  0.14239139  0.58459177  0.06800946     0.18100
N3052       N  0.16473619  0.55818200  0.04129991    -0.81100
H3053       H  0.19868891  0.58286101  0.13253325     0.33700
H3054       H  0.20951186  0.60368152  0.11757088     0.38200
H3055       H  0.14873489  0.56342639  0.03797760     0.33700
H3056       H  0.17471690  0.56475830  0.02889743     0.30400
H3057       H  0.25283403  0.57879602  0.04982346     0.33700
H3058       H  0.22679268  0.58773945  0.04956348     0.30400
H3059       H  0.20059034  0.49813783  0.00745325     0.38200
H3060       H  0.18748094  0.49226653  0.03101944     0.33700
C3061       C  0.26105576  0.44623802  0.99915158    -0.20000
C3062       C  0.26354710  0.43428448  0.01902707     0.36200
C3063       C  0.26452285  0.41119100  0.01841788    -0.26000
C3064       C  0.26399872  0.39981785  0.99837452     0.02600
C3065       C  0.26284753  0.41173742  0.97849459     0.27400
C3066       C  0.26119816  0.43475140  0.97910317    -0.25100
N3067       N  0.26568368  0.44555676  0.03967497    -0.82500
H3068       H  0.26575126  0.40197434  0.03365644     0.13200
C3069       C  0.26435578  0.37540607  0.99839964     0.02600
N3070       N  0.26346681  0.40038651  0.95776389    -0.81100
H3071       H  0.25990268  0.44367934  0.96375628     0.18100
C3072       C  0.24681774  0.36398392  0.98893133    -0.25900
C3073       C  0.24630280  0.34088674  0.98872674     0.36100
C3074       C  0.26395299  0.32887708  0.99804138    -0.20000
C3075       C  0.28140149  0.34045170  0.00768608    -0.25200
C3076       C  0.28183193  0.36354344  0.00787293     0.27500
H3077       H  0.23328256  0.37320284  0.98193987     0.13200
N3078       N  0.22775034  0.32972298  0.97942402    -0.82500
H3079       H  0.29499519  0.33146075  0.01483454     0.18100
N3080       N  0.30007722  0.37500706  0.01738847    -0.81100
H3081       H  0.21653361  0.34098508  0.97287715     0.33700
H3082       H  0.21962483  0.32162944  0.99227970     0.38200
H3083       H  0.31153478  0.36389038  0.02375431     0.33700
H3084       H  0.30799182  0.38358490  0.00471732     0.30400
H3085       H  0.26243980  0.41152757  0.94466819     0.33700
H3086       H  0.27878655  0.39271579  0.95645541     0.30400
H3087       H  0.28018341  0.45470090  0.03900207     0.38200
H3088       H  0.26746315  0.43434904  0.05262994     0.33700
C3089       C  0.00312553  0.90939722  0.99352397    -0.20000
C3090       C  0.01273580  0.89786979  0.01140065     0.36200
C3091       C  0.01377177  0.87481380  0.01091407    -0.26000
C3092       C  0.00521260  0.86290464  0.99323069     0.02600
C3093       C  0.99540575  0.87422711  0.97552652     0.27400
C3094       C  0.99439455  0.89731836  0.97588553    -0.25100
N3095       N  0.02115702  0.90946688  0.03015332    -0.82500
H3096       H  0.02095199  0.86598568  0.02464321     0.13200
C3097       C  0.00603942  0.83852606  0.99395642     0.02600
N3098       N  0.98673571  0.86222225  0.95716186    -0.81100
H3099       H  0.98706667  0.90590849  0.96209686     0.18100
C3100       C  0.98635078  0.82664838  0.99385264    -0.25900
C3101       C  0.98633169  0.80361126  0.99550230     0.36100
C3102       C  0.00649180  0.79219801  0.99700656    -0.20000
C3103       C  0.02618854  0.80412175  0.99727749    -0.25200
C3104       C  0.02617761  0.82717595  0.99567926     0.27500
H3105       H  0.97090879  0.83546385  0.99292937     0.13200
N3106       N  0.96590482  0.79184701  0.99616768    -0.82500
H3107       H  0.04166571  0.79537157  0.99818908     0.18100
N3108       N  0.04651240  0.83911627  0.99553805    -0.81100
H3109       H  0.95262126  0.80265611  0.99474869     0.33700
H3110       H  0.96461249  0.78445729  0.01167573     0.38200
H3111       H  0.05982837  0.82835288  0.99701506     0.33700
H3112       H  0.04802170  0.84674590  0.98016299     0.30400
H3113       H  0.97998855  0.87296446  0.94553691     0.33700
H3114       H  0.99987111  0.85426241  0.94941816     0.30400
H3115       H  0.00782284  0.91681537  0.03816132     0.38200
H3116       H  0.02815842  0.89855884  0.04147041     0.33700
C3117       C  0.00986032  0.74026418  0.82764072    -0.20000
C3118       C  0.99072013  0.74247437  0.84060969     0.36200
C3119       C  0.99259527  0.74346922  0.86364145    -0.26000
C3120       C  0.01317264  0.74232549  0.87381286     0.02600
C3121       C  0.03231811  0.74059999  0.86090493     0.27400
C3122       C  0.03048664  0.73970313  0.83787918    -0.25100
N3123       N  0.96954896  0.74400972  0.83034662    -0.82500
H3124       H  0.97797801  0.74494638  0.87375709     0.13200
C3125       C  0.01429226  0.74212163  0.89809064     0.02600
N3126       N  0.05345773  0.73956623  0.87128351    -0.81100
H3127       H  0.04517875  0.73819440  0.82787936     0.18100
C3128       C  0.01772087  0.72209950  0.90897316    -0.25900
C3129       C  0.01714476  0.72079680  0.93207436     0.36100
C3130       C  0.01367487  0.74013944  0.94448323    -0.20000
C3131       C  0.01090782  0.76029066  0.93341562    -0.25200
C3132       C  0.01101882  0.76144287  0.91032689     0.27500
H3133       H  0.02010620  0.70731787  0.89933103     0.13200
N3134       N  0.01927537  0.69983121  0.94282197    -0.82500
H3135       H  0.00857486  0.77523146  0.94280772     0.18100
N3136       N  0.00757468  0.78205240  0.89922082    -0.81100
H3137       H  0.02180377  0.68734941  0.93128296     0.33700
H3138       H  0.00436474  0.69641092  0.95066225     0.38200
H3139       H  0.00515251  0.79468466  0.91062164     0.33700
H3140       H  0.02196652  0.78581380  0.89058793     0.30400
H3141       H  0.06588953  0.73811111  0.85946030     0.33700
H3142       H  0.05598522  0.75453420  0.87929327     0.30400
H3143       H  0.96927315  0.75851270  0.82107374     0.38200
H3144       H  0.95718832  0.74552109  0.84223915     0.33700
C3145       C  0.03538373  0.71804399  0.02258820    -0.20000
C3146       C  0.05853398  0.71949064  0.01958902     0.36200
C3147       C  0.07269549  0.70657075  0.03263443    -0.26000
C3148       C  0.06457744  0.69273085  0.04922573     0.02600
C3149       C  0.04179554  0.69193157  0.05304600     0.27400
C3150       C  0.02755797  0.70464249  0.03995826    -0.25100
N3151       N  0.06769919  0.73379349  0.00305829    -0.82500
H3152       H  0.09027087  0.70743537  0.02999549     0.13200
C3153       C  0.08005276  0.67904540  0.06247082     0.02600
N3154       N  0.03314621  0.67796451  0.07012696    -0.81100
H3155       H  0.01034659  0.70397382  0.04388273     0.18100
C3156       C  0.08099228  0.68172553  0.08535330    -0.25900
C3157       C  0.09450349  0.66832554  0.09859210     0.36100
C3158       C  0.10822060  0.65212563  0.08869532    -0.20000
C3159       C  0.10687091  0.64950602  0.06558438    -0.25200
C3160       C  0.09308066  0.66272276  0.05251027     0.27500
H3161       H  0.07078761  0.69418660  0.09298612     0.13200
N3162       N  0.09424718  0.67123781  0.12209319    -0.82500
H3163       H  0.11566164  0.63655653  0.05734264     0.18100
N3164       N  0.09182567  0.65923242  0.02913076    -0.81100
H3165       H  0.08421898  0.68448430  0.12651774     0.33700
H3166       H  0.08711788  0.65729577  0.12915270     0.38200
H3167       H  0.10253799  0.64671313  0.02421534     0.33700
H3168       H  0.07596091  0.65379858  0.02559542     0.30400
H3169       H  0.01605869  0.67928901  0.07103130     0.33700
H3170       H  0.03662665  0.66170475  0.06578804     0.30400
H3171       H  0.06492401  0.74998225  0.00802470     0.38200
H3172       H  0.08473401  0.73189950  0.00212037     0.33700
C3173       C  0.02863020  0.20475108  0.52202743    -0.20000
C3174       C  0.05181668  0.20487783  0.51971018     0.36200
C3175       C  0.06498710  0.19148087  0.53321295    -0.26000
C3176       C  0.05566162  0.17774557  0.54924390     0.02600
C3177       C  0.03266011  0.17689734  0.55130933     0.27400
C3178       C  0.01944387  0.19029680  0.53781123    -0.25100
N3179       N  0.06216155  0.21893405  0.50382106    -0.82500
H3180       H  0.08268303  0.19226620  0.53154851     0.13200
C3181       C  0.07011194  0.16546892  0.56477679     0.02600
N3182       N  0.02280130  0.16244276  0.56728244    -0.81100
H3183       H  0.00199604  0.18917583  0.54012707     0.18100
C3184       C  0.06900742  0.17043501  0.58728752    -0.25900
C3185       C  0.08287265  0.16001444  0.60255392     0.36100
C3186       C  0.09850975  0.14446546  0.59514492    -0.20000
C3187       C  0.09906720  0.13888423  0.57273764    -0.25200
C3188       C  0.08503645  0.14926350  0.55744920     0.27500
H3189       H  0.05740545  0.18273506  0.59292650     0.13200
N3190       N  0.08112594  0.16515655  0.62559132    -0.82500
H3191       H  0.11090370  0.12690654  0.56703729     0.18100
N3192       N  0.08595705  0.14354406  0.53452355    -0.81100
H3193       H  0.06890192  0.17693934  0.62830471     0.33700
H3194       H  0.07613361  0.15088107  0.63380087     0.38200
H3195       H  0.09782933  0.13140966  0.53180517     0.33700
H3196       H  0.07083887  0.13662809  0.53037091     0.30400
H3197       H  0.00569839  0.16376958  0.56696227     0.33700
H3198       H  0.02661814  0.14632134  0.56271121     0.30400
H3199       H  0.07289492  0.22938186  0.51214404     0.38200
H3200       H  0.07144021  0.20912676  0.49315974     0.33700
C3201       C  0.30243580  0.00282169  0.49785809    -0.20000
C3202       C  0.31629828  0.00467977  0.51630591     0.36200
C3203       C  0.33912294  0.00369961  0.51346833    -0.26000
C3204       C  0.34833789  0.00059307  0.49255632     0.02600
C3205       C  0.33466234  0.99896545  0.47401931     0.27400
C3206       C  0.31179469  0.00010156  0.47685282    -0.25100
N3207       N  0.30730384  0.00657193  0.53803427    -0.82500
H3208       H  0.34970776  0.00484194  0.52772168     0.13200
C3209       C  0.37236948  0.99851645  0.49044940     0.02600
N3210       N  0.34407307  0.99583563  0.45251080    -0.81100
H3211       H  0.30122056  0.99876714  0.46261578     0.18100
C3212       C  0.38186755  0.97752798  0.49015897    -0.25900
C3213       C  0.40478243  0.97488232  0.48928033     0.36100
C3214       C  0.41827580  0.99371368  0.48808914    -0.20000
C3215       C  0.40860436  0.01469379  0.48798005    -0.25200
C3216       C  0.38575854  0.01728141  0.48938469     0.27500
H3217       H  0.37134224  0.96321054  0.49100448     0.13200
N3218       N  0.41426748  0.95322581  0.48900682    -0.82500
H3219       H  0.41896729  0.02913990  0.48727092     0.18100
N3220       N  0.37608037  0.03883616  0.49009052    -0.81100
H3221       H  0.40196810  0.94129274  0.48828688     0.33700
H3222       H  0.42218453  0.95081557  0.50405530     0.38200
H3223       H  0.38824316  0.05092527  0.48952069     0.33700
H3224       H  0.36665194  0.04080898  0.47587704     0.30400
H3225       H  0.33173649  0.99468951  0.44064691     0.33700
H3226       H  0.35317928  0.00987765  0.44865667     0.30400
H3227       H  0.31296816  0.99329364  0.54739584     0.38200
H3228       H  0.31335151  0.02100871  0.54504738     0.33700
C3229       C  0.24501566  0.99609912  0.45105493    -0.20000
C3230       C  0.24411619  0.97536431  0.44079002     0.36200
C3231       C  0.24462908  0.97394523  0.41774137    -0.26000
C3232       C  0.24585061  0.99294654  0.40470097     0.02600
C3233       C  0.24600919  0.01377347  0.41487262     0.27400
C3234       C  0.24547957  0.01515086  0.43799443    -0.25100
N3235       N  0.24236273  0.95572207  0.45373240    -0.82500
H3236       H  0.24415306  0.95793816  0.40997387     0.13200
C3237       C  0.24734037  0.99087949  0.38041119     0.02600
N3238       N  0.24722937  0.03337601  0.40166222    -0.81100
H3239       H  0.24629385  0.03108944  0.44586013     0.18100
C3240       C  0.23006244  0.99864326  0.36740660    -0.25900
C3241       C  0.23117884  0.99783392  0.34429729     0.36100
C3242       C  0.25032554  0.98942498  0.33388882    -0.20000
C3243       C  0.26735720  0.98107817  0.34710218    -0.25200
C3244       C  0.26607215  0.98177965  0.37023391     0.27500
H3245       H  0.21560090  0.00534967  0.37539419     0.13200
N3246       N  0.21286741  0.00545695  0.33148157    -0.82500
H3247       H  0.28201316  0.97450032  0.33939313     0.18100
N3248       N  0.28388742  0.97370257  0.38345686    -0.81100
H3249       H  0.20039996  0.01152919  0.34167454     0.33700
H3250       H  0.20632387  0.99185194  0.32334450     0.38200
H3251       H  0.29644519  0.96747259  0.37348056     0.33700
H3252       H  0.29048896  0.98707082  0.39193410     0.30400
H3253       H  0.24716652  0.04734950  0.41164746     0.33700
H3254       H  0.26232757  0.03321012  0.39342748     0.30400
H3255       H  0.25569439  0.94556584  0.44990174     0.38200
H3256       H  0.22800636  0.94756329  0.44917100     0.33700
C3257       C  0.25192838  0.94865372  0.50886973    -0.20000
C3258       C  0.27179453  0.93676725  0.50760215     0.36200
C3259       C  0.27141290  0.91372731  0.50703044    -0.26000
C3260       C  0.25151656  0.90228669  0.50800575     0.02600
C3261       C  0.23167287  0.91400427  0.51050374     0.27400
C3262       C  0.23206833  0.93713781  0.51085611    -0.25100
N3263       N  0.29241893  0.94802526  0.50723958    -0.82500
H3264       H  0.28671456  0.90471279  0.50564722     0.13200
C3265       C  0.25178389  0.87802652  0.50622198     0.02600
N3266       N  0.21127844  0.90236913  0.51280522    -0.81100
H3267       H  0.21678638  0.94621012  0.51195320     0.18100
C3268       C  0.25506207  0.86532786  0.52518313    -0.25900
C3269       C  0.25580658  0.84224222  0.52409048     0.36100
C3270       C  0.25332873  0.83168475  0.50349912    -0.20000
C3271       C  0.24992178  0.84452468  0.48454830    -0.25200
C3272       C  0.24935460  0.86761965  0.48567350     0.27500
H3273       H  0.25696946  0.87350118  0.54089100     0.13200
N3274       N  0.25868679  0.82951519  0.54385939    -0.82500
H3275       H  0.24811910  0.83651704  0.46874595     0.18100
N3276       N  0.24698230  0.88057640  0.46598323    -0.81100
H3277       H  0.26047113  0.83979241  0.55750386     0.33700
H3278       H  0.24429186  0.82053290  0.54646019     0.38200
H3279       H  0.24589773  0.87042316  0.45216658     0.33700
H3280       H  0.23211136  0.88908324  0.46701669     0.30400
H3281       H  0.19827120  0.91340990  0.51490569     0.33700
H3282       H  0.20832229  0.89404326  0.49809681     0.30400
H3283       H  0.30160891  0.94267541  0.52073876     0.38200
H3284       H  0.30082466  0.94350642  0.49290531     0.33700
C3285       C  0.22590856  0.02605870  0.52681668    -0.20000
C3286       C  0.20295064  0.02220567  0.52728881     0.36200
C3287       C  0.18904621  0.03521187  0.54045213    -0.26000
C3288       C  0.19736714  0.05233039  0.55331365     0.02600
C3289       C  0.22008966  0.05669204  0.55268106     0.27400
C3290       C  0.23404945  0.04356363  0.53964240    -0.25100
N3291       N  0.19362205  0.00484460  0.51450051    -0.82500
H3292       H  0.17163369  0.03164789  0.54089045     0.13200
C3293       C  0.18241321  0.06513040  0.56803298     0.02600
N3294       N  0.22892393  0.07456626  0.56530256    -0.81100
H3295       H  0.25123803  0.04745656  0.53981196     0.18100
C3296       C  0.18683613  0.06568752  0.59066187    -0.25900
C3297       C  0.17421461  0.07861182  0.60508453     0.36100
C3298       C  0.15685714  0.09162575  0.59671211    -0.20000
C3299       C  0.15153972  0.09003610  0.57430802    -0.25200
C3300       C  0.16422209  0.07700998  0.55982802     0.27500
H3301       H  0.20036063  0.05604635  0.59708077     0.13200
N3302       N  0.17894304  0.07853366  0.62826114    -0.82500
H3303       H  0.13809733  0.09970811  0.56788975     0.18100
N3304       N  0.15909500  0.07631164  0.53676342    -0.81100
H3305       H  0.19224750  0.06822490  0.63171908     0.33700
H3306       H  0.16534328  0.07184239  0.63635763     0.38200
H3307       H  0.14521515  0.08586299  0.53340686     0.33700
H3308       H  0.17217089  0.08348930  0.52820083     0.30400
H3309       H  0.24593775  0.07559104  0.56327488     0.33700
H3310       H  0.22234397  0.08915540  0.55900114     0.30400
H3311       H  0.18199837  0.01171824  0.50388447     0.38200
H3312       H  0.18547938  0.99410823  0.52521609     0.33700
C3313       C  0.71181255  0.48559631  0.98816864    -0.20000
C3314       C  0.70007473  0.50555053  0.99085613     0.36200
C3315       C  0.67714191  0.50538321  0.99220820    -0.26000
C3316       C  0.66541653  0.48579991  0.99061214     0.02600
C3317       C  0.67673050  0.46580716  0.98773976     0.27400
C3318       C  0.69983489  0.46587770  0.98664164    -0.25100
N3319       N  0.71108866  0.52625078  0.99146721    -0.82500
H3320       H  0.66836416  0.52078524  0.99411957     0.13200
C3321       C  0.64120994  0.48685556  0.99101161     0.02600
N3322       N  0.66470668  0.44563444  0.98553653    -0.81100
H3323       H  0.70849240  0.45042297  0.98485447     0.18100
C3324       C  0.63003419  0.49110016  0.97134278    -0.25900
C3325       C  0.60705429  0.49309347  0.97102380     0.36100
C3326       C  0.59508631  0.49074645  0.99088338    -0.20000
C3327       C  0.60643676  0.48671665  0.01060563    -0.25200
C3328       C  0.62943035  0.48501512  0.01090438     0.27500
H3329       H  0.63933419  0.49285270  0.95619433     0.13200
N3330       N  0.59588161  0.49711934  0.95059056    -0.82500
H3331       H  0.59733838  0.48517923  0.02589611     0.18100
N3332       N  0.64090544  0.48205623  0.03134627    -0.81100
H3333       H  0.60713527  0.49876134  0.93765498     0.33700
H3334       H  0.58643742  0.48323690  0.94710198     0.38200
H3335       H  0.62984151  0.48156650  0.04453812     0.33700
H3336       H  0.64864783  0.46672759  0.03091018     0.30400
H3337       H  0.67545393  0.43243609  0.98314204     0.33700
H3338       H  0.65655204  0.44266080  0.00041227     0.30400
H3339       H  0.70483899  0.53607283  0.97879380     0.38200
H3340       H  0.70725291  0.53387749  0.00640754     0.33700
C3341       C  0.76677666  0.48536838  0.03944480    -0.20000
C3342       C  0.76476238  0.46674503  0.05325004     0.36200
C3343       C  0.76448905  0.46956289  0.07627658    -0.26000
C3344       C  0.76604194  0.49057351  0.08558980     0.02600
C3345       C  0.76856426  0.50905952  0.07186874     0.27400
C3346       C  0.76882425  0.50627061  0.04895637    -0.25100
N3347       N  0.76232293  0.44521811  0.04389529    -0.82500
H3348       H  0.76264448  0.45542639  0.08700947     0.13200
C3349       C  0.76469553  0.49322061  0.10975485     0.02600
N3350       N  0.77090355  0.53057914  0.08129965    -0.81100
H3351       H  0.77043012  0.52057044  0.03845112     0.18100
C3352       C  0.78406627  0.49341671  0.12203746    -0.25900
C3353       C  0.78347475  0.49658017  0.14489082     0.36100
C3354       C  0.76316186  0.49977547  0.15572212    -0.20000
C3355       C  0.74376811  0.49989759  0.14331944    -0.25200
C3356       C  0.74433453  0.49647516  0.12039250     0.27500
H3357       H  0.79972999  0.49117668  0.11381836     0.13200
N3358       N  0.80359881  0.49694574  0.15701474    -0.82500
H3359       H  0.72814096  0.50209403  0.15160528     0.18100
N3360       N  0.72435060  0.49589514  0.10790433    -0.81100
H3361       H  0.81349564  0.50940255  0.15049812     0.33700
H3362       H  0.81163883  0.48194822  0.15456535     0.38200
H3363       H  0.71077427  0.49818599  0.11822858     0.33700
H3364       H  0.72453698  0.50919165  0.09697551     0.30400
H3365       H  0.77299373  0.54239377  0.06893910     0.33700
H3366       H  0.75622779  0.53445933  0.08937474     0.30400
H3367       H  0.74747401  0.44498201  0.03533123     0.38200
H3368       H  0.76107840  0.43334246  0.05631258     0.33700
C3369       C  0.99863218  0.47820993  0.69328279    -0.20000
C3370       C  0.97891865  0.47703886  0.68118943     0.36200
C3371       C  0.97986422  0.47671062  0.65806197    -0.26000
C3372       C  0.00003333  0.47795784  0.64696158     0.02600
C3373       C  0.01969998  0.47873085  0.65899377     0.27400
C3374       C  0.01880111  0.47884888  0.68206173    -0.25100
N3375       N  0.95807007  0.47699337  0.69234557    -0.82500
H3376       H  0.96482587  0.47620716  0.64860968     0.13200
C3377       C  0.00034053  0.47944407  0.62269709     0.02600
N3378       N  0.04045018  0.47957479  0.64767819    -0.81100
H3379       H  0.03393342  0.47951863  0.69135221     0.18100
C3380       C  0.00629493  0.49936201  0.61274572    -0.25900
C3381       C  0.00679283  0.50157344  0.58972881     0.36100
C3382       C  0.00159473  0.48326232  0.57644329    -0.20000
C3383       C  0.99534468  0.46340153  0.58656523    -0.25200
C3384       C  0.99475804  0.46129715  0.60958625     0.27500
H3385       H  0.01032886  0.51329202  0.62304411     0.13200
N3386       N  0.01217012  0.52240568  0.57988180    -0.82500
H3387       H  0.99134148  0.44931023  0.57648872     0.18100
N3388       N  0.98878174  0.44078273  0.61973620    -0.81100
H3389       H  0.01573831  0.53403847  0.59198643     0.33700
H3390       H  0.99818327  0.52807965  0.57170028     0.38200
H3391       H  0.98504971  0.42906396  0.60777064     0.33700
H3392       H  0.00252645  0.43490585  0.62818454     0.30400
H3393       H  0.05336358  0.48024939  0.65894427     0.33700
H3394       H  0.04229244  0.46485471  0.63901514     0.30400
H3395       H  0.95640419  0.49206423  0.70042505     0.38200
H3396       H  0.94522950  0.47609034  0.68101741     0.33700
C3397       C  0.00449044  0.65121560  0.74531837    -0.20000
C3398       C  0.98981374  0.63998685  0.75958781     0.36200
C3399       C  0.98869416  0.61696892  0.75916497    -0.26000
C3400       C  0.00191237  0.60466341  0.74485408     0.02600
C3401       C  0.01663449  0.61561375  0.73063809     0.27400
C3402       C  0.01772427  0.63872080  0.73095986    -0.25100
N3403       N  0.97582277  0.65174788  0.77448456    -0.82500
H3404       H  0.97726675  0.60862359  0.77004159     0.13200
C3405       C  0.00021402  0.58031416  0.74507768     0.02600
N3406       N  0.03053617  0.60319960  0.71605951    -0.81100
H3407       H  0.02904600  0.64696030  0.71992148     0.18100
C3408       C  0.99424366  0.56920247  0.72577305    -0.25900
C3409       C  0.99278289  0.54619676  0.72542820     0.36100
C3410       C  0.99706899  0.53410211  0.74469357    -0.20000
C3411       C  0.00256808  0.54514359  0.76411557    -0.25200
C3412       C  0.00445388  0.56815538  0.76444892     0.27500
H3413       H  0.99072640  0.57843941  0.71091475     0.13200
N3414       N  0.98666031  0.53513731  0.70559362    -0.82500
H3415       H  0.00620426  0.53570448  0.77881860     0.18100
N3416       N  0.01115020  0.57920547  0.78419908    -0.81100
H3417       H  0.97128696  0.54103688  0.70075253     0.33700
H3418       H  0.99803100  0.53925207  0.69333505     0.38200
H3419       H  0.01363736  0.56789838  0.79694681     0.33700
H3420       H  0.02634968  0.58653046  0.78103293     0.30400
H3421       H  0.04036720  0.61368928  0.70660281     0.33700
H3422       H  0.04116662  0.59381638  0.72577504     0.30400
H3423       H  0.97919446  0.64634716  0.79048003     0.38200
H3424       H  0.95954814  0.64773622  0.77089537     0.33700
C3425       C  0.05169085  0.48386145  0.74519183    -0.20000
C3426       C  0.06312582  0.50396570  0.74404024     0.36200
C3427       C  0.08611669  0.50397773  0.74355085    -0.26000
C3428       C  0.09795250  0.48426685  0.74453442     0.02600
C3429       C  0.08670768  0.46411997  0.74629630     0.27400
C3430       C  0.06362889  0.46410735  0.74645551    -0.25100
N3431       N  0.05151605  0.52445347  0.74414424    -0.82500
H3432       H  0.09480532  0.51948298  0.74263621     0.13200
C3433       C  0.12216176  0.48514961  0.74424616     0.02600
N3434       N  0.09874474  0.44388280  0.74849442    -0.81100
H3435       H  0.05492955  0.44862216  0.74741243     0.18100
C3436       C  0.13333387  0.48906208  0.76395419    -0.25900
C3437       C  0.15633621  0.49070207  0.76429720     0.36100
C3438       C  0.16831026  0.48825660  0.74446101    -0.20000
C3439       C  0.15701499  0.48427784  0.72475936    -0.25200
C3440       C  0.13399347  0.48302344  0.72440112     0.27500
H3441       H  0.12402565  0.49087944  0.77908527     0.13200
N3442       N  0.16755438  0.49456339  0.78471027    -0.82500
H3443       H  0.16617077  0.48266513  0.70951567     0.18100
N3444       N  0.12254483  0.48042136  0.70391216    -0.81100
H3445       H  0.15632403  0.49618828  0.79766648     0.33700
H3446       H  0.17701317  0.48062769  0.78817417     0.38200
H3447       H  0.13365032  0.47976162  0.69076505     0.33700
H3448       H  0.11451447  0.46527788  0.70427372     0.30400
H3449       H  0.08798413  0.43061314  0.75014987     0.33700
H3450       H  0.10751907  0.44130069  0.73392192     0.30400
H3451       H  0.05665155  0.53349125  0.75779772     0.38200
H3452       H  0.05588053  0.53319009  0.72994783     0.33700
C3453       C  0.91218147  0.33126079  0.89581421    -0.20000
C3454       C  0.92712073  0.34210639  0.90994593     0.36200
C3455       C  0.94175041  0.32995057  0.92285555    -0.26000
C3456       C  0.94218442  0.30701366  0.92192653     0.02600
C3457       C  0.92776164  0.29592024  0.90775738     0.27400
C3458       C  0.91280520  0.30807091  0.89499619    -0.25100
N3459       N  0.92764966  0.36562714  0.91109485    -0.82500
H3460       H  0.95289755  0.33852249  0.93371616     0.13200
C3461       C  0.95786701  0.29488818  0.93599453     0.02600
N3462       N  0.92862338  0.27235279  0.90615707    -0.81100
H3463       H  0.90216817  0.29903293  0.88423938     0.18100
C3464       C  0.94987065  0.28057574  0.95217261    -0.25900
C3465       C  0.96421346  0.26915025  0.96610180     0.36100
C3466       C  0.98721803  0.27205765  0.96409782    -0.20000
C3467       C  0.99503464  0.28659621  0.94768045    -0.25200
C3468       C  0.98062978  0.29787855  0.93361408     0.27500
H3469       H  0.93232492  0.27829235  0.95405030     0.13200
N3470       N  0.95529367  0.25434741  0.98218145    -0.82500
H3471       H  0.01228772  0.28910378  0.94503428     0.18100
N3472       N  0.98902563  0.31216359  0.91666295    -0.81100
H3473       H  0.94603586  0.24249700  0.97395897     0.33700
H3474       H  0.94472072  0.26323948  0.99243861     0.38200
H3475       H  0.00616527  0.31273515  0.91709774     0.33700
H3476       H  0.98479753  0.30535514  0.90147292     0.30400
H3477       H  0.91691337  0.26662547  0.89503087     0.33700
H3478       H  0.94397360  0.26812578  0.89966289     0.30400
H3479       H  0.94342459  0.37084739  0.90675667     0.38200
H3480       H  0.92469488  0.37025241  0.92740866     0.33700
C3481       C  0.85579144  0.39186531  0.89211820    -0.20000
C3482       C  0.86411999  0.40587908  0.90857221     0.36200
C3483       C  0.84962118  0.41911061  0.92077249    -0.26000
C3484       C  0.82693065  0.41873648  0.91688823     0.02600
C3485       C  0.81877406  0.40588244  0.89937947     0.27400
C3486       C  0.83336412  0.39266890  0.88703699    -0.25100
N3487       N  0.88727700  0.40632992  0.91303166    -0.82500
H3488       H  0.85597344  0.42943340  0.93378111     0.13200
C3489       C  0.81209396  0.43103907  0.93214591     0.02600
N3490       N  0.79566730  0.40565274  0.89474870    -0.81100
H3491       H  0.82704980  0.38206858  0.87424571     0.18100
C3492       C  0.79791645  0.44728608  0.92404046    -0.25900
C3493       C  0.78481994  0.45994231  0.93835977     0.36100
C3494       C  0.78609244  0.45686912  0.96150553    -0.20000
C3495       C  0.79958795  0.43968048  0.96933959    -0.25200
C3496       C  0.81244388  0.42681565  0.95498959     0.27500
H3497       H  0.79727339  0.45046769  0.90649115     0.13200
N3498       N  0.77039589  0.47619367  0.92926530    -0.82500
H3499       H  0.80028159  0.43576152  0.98659513     0.18100
N3500       N  0.82590452  0.40934389  0.96354935    -0.81100
H3501       H  0.77981028  0.48722398  0.91999963     0.33700
H3502       H  0.75955222  0.46830493  0.91859765     0.38200
H3503       H  0.82452224  0.40835358  0.98068910     0.33700
H3504       H  0.81986566  0.39455713  0.95730577     0.30400
H3505       H  0.79237246  0.39541486  0.88136722     0.33700
H3506       H  0.78768137  0.39878134  0.90838159     0.30400
H3507       H  0.89518887  0.41218204  0.89888428     0.38200
H3508       H  0.89075076  0.41743830  0.92564643     0.33700
C3509       C  0.97520607  0.45860638  0.77120638    -0.20000
C3510       C  0.95215873  0.45873671  0.76791655     0.36200
C3511       C  0.93842162  0.44583696  0.78126763    -0.26000
C3512       C  0.94707123  0.43290590  0.79820438     0.02600
C3513       C  0.96976080  0.43341628  0.80241987     0.27400
C3514       C  0.98356746  0.44615557  0.78894571    -0.25100
N3515       N  0.94259084  0.47186908  0.75083195    -0.82500
H3516       H  0.92093041  0.44559882  0.77810660     0.13200
C3517       C  0.93253910  0.41788826  0.81072221     0.02600
N3518       N  0.97867073  0.42092506  0.82045033    -0.81100
H3519       H  0.00074286  0.44629921  0.79290962     0.18100
C3520       C  0.93625707  0.39524611  0.80905065    -0.25900
C3521       C  0.92415491  0.38034907  0.82172445     0.36100
C3522       C  0.90795419  0.38812705  0.83641572    -0.20000
C3523       C  0.90336102  0.41070986  0.83727936    -0.25200
C3524       C  0.91568320  0.42576903  0.82463909     0.27500
H3525       H  0.94893559  0.38912149  0.79808548     0.13200
N3526       N  0.92845738  0.35728334  0.81972703    -0.82500
H3527       H  0.89096738  0.41666421  0.84864804     0.18100
N3528       N  0.91167340  0.44898161  0.82638862    -0.81100
H3529       H  0.92610701  0.35284875  0.80328521     0.33700
H3530       H  0.94494493  0.35452089  0.82357865     0.38200
H3531       H  0.89874765  0.45203969  0.83734239     0.33700
H3532       H  0.92565966  0.45614031  0.83321186     0.30400
H3533       H  0.99568669  0.42288602  0.82134345     0.33700
H3534       H  0.97214694  0.42738796  0.83501100     0.30400
H3535       H  0.93398141  0.46146012  0.74027855     0.38200
H3536       H  0.93133651  0.48267138  0.75807252     0.33700
C3537       C  0.85325211  0.33759048  0.83648695    -0.20000
C3538       C  0.86189583  0.32810157  0.81714230     0.36200
C3539       C  0.84794671  0.31637722  0.80308533    -0.26000
C3540       C  0.82559498  0.31386406  0.80807699     0.02600
C3541       C  0.81676523  0.32430156  0.82688128     0.27400
C3542       C  0.83075353  0.33604052  0.84098776    -0.25100
N3543       N  0.88483960  0.33023692  0.81197631    -0.82500
H3544       H  0.85467206  0.30847451  0.78857567     0.13200
C3545       C  0.81194805  0.29945144  0.79394096     0.02600
N3546       N  0.79371731  0.32264179  0.83169053    -0.81100
H3547       H  0.82426459  0.34333505  0.85591581     0.18100
C3548       C  0.80157039  0.28109782  0.80323779    -0.25900
C3549       C  0.78901487  0.26666251  0.79034291     0.36100
C3550       C  0.78748971  0.27006853  0.76722140    -0.20000
C3551       C  0.79740813  0.28910416  0.75826963    -0.25200
C3552       C  0.80962428  0.30364356  0.77129740     0.27500
H3553       H  0.80328468  0.27803350  0.82073278     0.13200
N3554       N  0.77791576  0.24853541  0.80075724    -0.82500
H3555       H  0.79513541  0.29349648  0.74124219     0.18100
N3556       N  0.81943720  0.32290023  0.76166797    -0.81100
H3557       H  0.78151799  0.24788071  0.81756208     0.33700
H3558       H  0.76104583  0.25139696  0.79964553     0.38200
H3559       H  0.81636295  0.32362539  0.74475777     0.33700
H3560       H  0.81182178  0.33663617  0.76866626     0.30400
H3561       H  0.78987111  0.33116774  0.84612501     0.33700
H3562       H  0.78525523  0.33047433  0.81893164     0.30400
H3563       H  0.89369787  0.32137056  0.82373202     0.38200
H3564       H  0.88838698  0.32301286  0.79676941     0.33700
C3565       C  0.75606793  0.65131830  0.99314616    -0.20000
C3566       C  0.75563024  0.64130303  0.97223649     0.36200
C3567       C  0.75850319  0.61853804  0.97039820    -0.26000
C3568       C  0.76087029  0.60519644  0.98912938     0.02600
C3569       C  0.76052949  0.61509861  0.01020114     0.27400
C3570       C  0.75865682  0.63811108  0.01193814    -0.25100
N3571       N  0.75293925  0.65426724  0.95269960    -0.82500
H3572       H  0.75906755  0.61128681  0.95413222     0.13200
C3573       C  0.76364918  0.58098245  0.98638277     0.02600
N3574       N  0.76181193  0.60175900  0.02973490    -0.81100
H3575       H  0.75879904  0.64574233  0.02803697     0.18100
C3576       C  0.78080382  0.57005956  0.99739673    -0.25900
C3577       C  0.78296837  0.54706867  0.99640081     0.36100
C3578       C  0.76809716  0.53493554  0.98368297    -0.20000
C3579       C  0.75220199  0.54583912  0.97122127    -0.25200
C3580       C  0.74933884  0.56867102  0.97289516     0.27500
H3581       H  0.79228328  0.57946145  0.00713934     0.13200
N3582       N  0.79978552  0.53592622  0.00866551    -0.82500
H3583       H  0.74122237  0.53629181  0.96104596     0.18100
N3584       N  0.73143042  0.57921061  0.96166489    -0.81100
H3585       H  0.80922799  0.54720927  0.01745097     0.33700
H3586       H  0.81031639  0.52837403  0.99734278     0.38200
H3587       H  0.72255198  0.56781678  0.95243744     0.33700
H3588       H  0.72068673  0.58531773  0.97364871     0.30400
H3589       H  0.76135156  0.61155523  0.04384256     0.33700
H3590       H  0.74780371  0.59186501  0.03024992     0.30400
H3591       H  0.73906913  0.64856332  0.94441258     0.38200
H3592       H  0.76659927  0.65171253  0.94254968     0.33700
C3593       C  0.66967069  0.73787808  0.99723197    -0.20000
C3594       C  0.65695231  0.72052850  0.98848029     0.36200
C3595       C  0.63410420  0.72304382  0.98671762    -0.26000
C3596       C  0.62364441  0.74239961  0.99354591     0.02600
C3597       C  0.63618976  0.75959270  0.00255751     0.27400
C3598       C  0.65902323  0.75709222  0.00445723    -0.25100
N3599       N  0.66717171  0.70036277  0.98155721    -0.82500
H3600       H  0.62431520  0.70972681  0.98020007     0.13200
C3601       C  0.59943788  0.74414767  0.99180460     0.02600
N3602       N  0.62570857  0.77965374  0.00940482    -0.81100
H3603       H  0.66860792  0.77052901  0.01101775     0.18100
C3604       C  0.58709007  0.74783131  0.01096316    -0.25900
C3605       C  0.56414712  0.74930074  0.01020324     0.36100
C3606       C  0.55332598  0.74670910  0.98989908    -0.20000
C3607       C  0.56562502  0.74323579  0.97066161    -0.25200
C3608       C  0.58864017  0.74188238  0.97140627     0.27500
H3609       H  0.59542703  0.74947089  0.02660035     0.13200
N3610       N  0.55180663  0.75368169  0.02992347    -0.82500
H3611       H  0.55720443  0.74109973  0.95513256     0.18100
N3612       N  0.60108631  0.73815469  0.95160790    -0.81100
H3613       H  0.56221097  0.75491528  0.04350863     0.33700
H3614       H  0.54440267  0.76907681  0.02798487     0.38200
H3615       H  0.59065028  0.73664160  0.93807226     0.33700
H3616       H  0.61070700  0.75209282  0.94877552     0.30400
H3617       H  0.63722628  0.79064511  0.01573835     0.33700
H3618       H  0.61904398  0.78708791  0.99539560     0.30400
H3619       H  0.67369590  0.69279837  0.99556360     0.38200
H3620       H  0.65553479  0.68951866  0.97518281     0.33700
C3621       C  0.84022535  0.73315861  0.99334180    -0.20000
C3622       C  0.85240141  0.71706266  0.00505619     0.36200
C3623       C  0.87546610  0.71781218  0.00471580    -0.26000
C3624       C  0.88674323  0.73392481  0.99267941     0.02600
C3625       C  0.87478414  0.74950037  0.98038596     0.27400
C3626       C  0.85171467  0.74894818  0.98081961    -0.25100
N3627       N  0.84146659  0.69995923  0.01721865    -0.82500
H3628       H  0.88479057  0.70566391  0.01383746     0.13200
C3629       C  0.91110065  0.73446088  0.99349724     0.02600
N3630       N  0.88611947  0.76605978  0.96783857    -0.81100
H3631       H  0.84270259  0.76125617  0.97161911     0.18100
C3632       C  0.92331226  0.73161919  0.97407494    -0.25900
C3633       C  0.94639137  0.73197961  0.97436288     0.36100
C3634       C  0.95740628  0.73522767  0.99449225    -0.20000
C3635       C  0.94520085  0.73777018  0.01393773    -0.25200
C3636       C  0.92214003  0.73767557  0.01361194     0.27500
H3637       H  0.91477689  0.72896401  0.95869269     0.13200
N3638       N  0.95868118  0.72878829  0.95437486    -0.82500
H3639       H  0.95371385  0.74056194  0.02930867     0.18100
N3640       N  0.90984170  0.74126265  0.03353270    -0.81100
H3641       H  0.94813174  0.72673421  0.94100556     0.33700
H3642       H  0.96746050  0.71410511  0.95602305     0.38200
H3643       H  0.92040134  0.74337099  0.04688582     0.33700
H3644       H  0.90121694  0.75602605  0.03169476     0.30400
H3645       H  0.87495178  0.77620905  0.95961278     0.33700
H3646       H  0.89454207  0.77604916  0.97893590     0.30400
H3647       H  0.83359888  0.68985956  0.00580980     0.38200
H3648       H  0.85282578  0.69000254  0.02541583     0.33700
C3649       C  0.75987206  0.74298314  0.08103347    -0.20000
C3650       C  0.76294496  0.76416596  0.08997623     0.36200
C3651       C  0.76347694  0.76684547  0.11294603    -0.26000
C3652       C  0.76104742  0.74879748  0.12707951     0.02600
C3653       C  0.75866479  0.72753867  0.11822926     0.27400
C3654       C  0.75825375  0.72479824  0.09521282    -0.25100
N3655       N  0.76566047  0.78283582  0.07566439    -0.82500
H3656       H  0.76552778  0.78309191  0.11990420     0.13200
C3657       C  0.76036551  0.75250812  0.15115397     0.02600
N3658       N  0.75632480  0.70893946  0.13268549    -0.81100
H3659       H  0.75605733  0.70854534  0.08832149     0.18100
C3660       C  0.74002837  0.75267551  0.16196063    -0.25900
C3661       C  0.73866739  0.75589718  0.18478648     0.36100
C3662       C  0.75802157  0.75848295  0.19721129    -0.20000
C3663       C  0.77835326  0.75905673  0.18619762    -0.25200
C3664       C  0.77969523  0.75615261  0.16324414     0.27500
H3665       H  0.72511034  0.75039395  0.15258311     0.13200
N3666       N  0.71755445  0.75699688  0.19518343    -0.82500
H3667       H  0.79329722  0.76095628  0.19559597     0.18100
N3668       N  0.80057592  0.75662805  0.15217260    -0.81100
H3669       H  0.70926758  0.74232326  0.19199056     0.33700
H3670       H  0.70870225  0.76983255  0.18793367     0.38200
H3671       H  0.81318102  0.75968012  0.16338409     0.33700
H3672       H  0.80344822  0.74096712  0.14572131     0.30400
H3673       H  0.75454766  0.69448778  0.12359503     0.33700
H3674       H  0.77091424  0.70733874  0.14155953     0.30400
H3675       H  0.78022367  0.78053849  0.06679411     0.38200
H3676       H  0.76767843  0.79720320  0.08483850     0.33700
C3677       C  0.51584260  0.28943823  0.00269006    -0.20000
C3678       C  0.49539616  0.30027892  0.00426514     0.36200
C3679       C  0.49457743  0.32331332  0.00288009    -0.26000
C3680       C  0.51378439  0.33567479  0.00015445     0.02600
C3681       C  0.53427563  0.32487606  0.99905499     0.27400
C3682       C  0.53510725  0.30182285  0.00046929    -0.25100
N3683       N  0.47559408  0.28787060  0.00752284    -0.82500
H3684       H  0.47892570  0.33172236  0.00408203     0.13200
C3685       C  0.51222780  0.35996926  0.99879066     0.02600
N3686       N  0.55407238  0.33736809  0.99610679    -0.81100
H3687       H  0.55075331  0.29342829  0.99911054     0.18100
C3688       C  0.52192312  0.37265723  0.01526600    -0.25900
C3689       C  0.52087683  0.39571647  0.01471898     0.36100
C3690       C  0.51035092  0.40643679  0.99682333    -0.20000
C3691       C  0.50023164  0.39354930  0.98057158    -0.25200
C3692       C  0.50104367  0.37044306  0.98139974     0.27500
H3693       H  0.53010096  0.36444834  0.02881542     0.13200
N3694       N  0.53022434  0.40814770  0.03246640    -0.82500
H3695       H  0.49196945  0.40149708  0.96693533     0.18100
N3696       N  0.49080135  0.35754862  0.96452304    -0.81100
H3697       H  0.53772178  0.39775622  0.04394751     0.33700
H3698       H  0.51729677  0.41591529  0.04074289     0.38200
H3699       H  0.48314120  0.36771959  0.95295853     0.33700
H3700       H  0.50319651  0.34906488  0.95613689     0.30400
H3701       H  0.56774335  0.32696282  0.99565684     0.33700
H3702       H  0.55322780  0.34502685  0.98070007     0.30400
H3703       H  0.47669298  0.28015896  0.02288257     0.38200
H3704       H  0.46195366  0.29829790  0.00824751     0.33700
C3705       C  0.46644397  0.23405100  0.00076621    -0.20000
C3706       C  0.45427151  0.23120715  0.02049591     0.36200
C3707       C  0.43120831  0.23197831  0.01984090    -0.26000
C3708       C  0.42014441  0.23632932  0.00015090     0.02600
C3709       C  0.43210191  0.23931374  0.98053608     0.27400
C3710       C  0.45509232  0.23782967  0.98097422    -0.25100
N3711       N  0.46524053  0.22836799  0.04122148    -0.82500
H3712       H  0.42178216  0.22980073  0.03485377     0.13200
C3713       C  0.39594315  0.23780107  0.00027144     0.02600
N3714       N  0.42081981  0.24414626  0.96033788    -0.81100
H3715       H  0.46416035  0.23974379  0.96572596     0.18100
C3716       C  0.38584227  0.25849092  0.00124861    -0.25900
C3717       C  0.36283912  0.26049627  0.00102226     0.36100
C3718       C  0.34981772  0.24134413  0.99970884    -0.20000
C3719       C  0.36007510  0.22067055  0.99869727    -0.25200
C3720       C  0.38302884  0.21871060  0.99909730     0.27500
H3721       H  0.39597775  0.27307941  0.00207366     0.13200
N3722       N  0.35271964  0.28185284  0.00173547    -0.82500
H3723       H  0.35011878  0.20596096  0.99786298     0.18100
N3724       N  0.39331994  0.19743928  0.99846928    -0.81100
H3725       H  0.36462395  0.29415005  0.00284430     0.33700
H3726       H  0.34464619  0.28429544  0.98676398     0.38200
H3727       H  0.38148977  0.18503076  0.99795066     0.33700
H3728       H  0.40223804  0.19639319  0.98376900     0.30400
H3729       H  0.43202347  0.24629621  0.94743292     0.33700
H3730       H  0.41130884  0.23045355  0.95634800     0.30400
H3731       H  0.47378875  0.24286389  0.04452084     0.38200
H3732       H  0.45387534  0.22635405  0.05400506     0.33700
C3733       C  0.54393391  0.21498982  0.02710193    -0.20000
C3734       C  0.53850240  0.21269588  0.04983053     0.36200
C3735       C  0.55183156  0.19971456  0.06368876    -0.26000
C3736       C  0.57095807  0.18968280  0.05572796     0.02600
C3737       C  0.57750791  0.19350152  0.03380940     0.27400
C3738       C  0.56408198  0.20606404  0.01982021    -0.25100
N3739       N  0.51926429  0.22317108  0.05876494    -0.82500
H3740       H  0.54709536  0.19708502  0.08070613     0.13200
C3741       C  0.58343738  0.17402018  0.06979894     0.02600
N3742       N  0.59786652  0.18447837  0.02583534    -0.81100
H3743       H  0.56994770  0.20912463  0.00333801     0.18100
C3744       C  0.58451940  0.15199875  0.06325441    -0.25900
C3745       C  0.59727951  0.13661785  0.07478540     0.36100
C3746       C  0.60984317  0.14351259  0.09306900    -0.20000
C3747       C  0.60788089  0.16537194  0.10032245    -0.25200
C3748       C  0.59474834  0.18072017  0.08886142     0.27500
H3749       H  0.57537596  0.14682371  0.04890550     0.13200
N3750       N  0.59741026  0.11399713  0.06798391    -0.82500
H3751       H  0.61725781  0.17071725  0.11443972     0.18100
N3752       N  0.59326868  0.20312101  0.09616723    -0.81100
H3753       H  0.58741732  0.11173301  0.05422135     0.33700
H3754       H  0.59054258  0.10468206  0.08072590     0.38200
H3755       H  0.60246503  0.20535073  0.11048533     0.33700
H3756       H  0.60040163  0.21303727  0.08402447     0.30400
H3757       H  0.60036200  0.18860387  0.00929380     0.33700
H3758       H  0.61056210  0.19182706  0.03468846     0.30400
H3759       H  0.52176252  0.24014085  0.05816008     0.38200
H3760       H  0.51721003  0.21912908  0.07538747     0.33700
C3761       C  0.45676281  0.49331115  0.73679993    -0.20000
C3762       C  0.44550733  0.49796764  0.75658967     0.36200
C3763       C  0.42244587  0.49814050  0.75685229    -0.26000
C3764       C  0.41034894  0.49363879  0.73778205     0.02600
C3765       C  0.42161122  0.48922582  0.71789138     0.27400
C3766       C  0.44473681  0.48933182  0.71756342    -0.25100
N3767       N  0.45755238  0.50272975  0.77630238    -0.82500
H3768       H  0.41380348  0.50187352  0.77201806     0.13200
C3769       C  0.38591391  0.49367111  0.73903401     0.02600
N3770       N  0.40953036  0.48417706  0.69826907    -0.81100
H3771       H  0.45343110  0.48558090  0.70243120     0.18100
C3772       C  0.37392000  0.50828318  0.72585853    -0.25900
C3773       C  0.35086188  0.50943951  0.72717245     0.36100
C3774       C  0.33935254  0.49529002  0.74186558    -0.20000
C3775       C  0.35156593  0.48071858  0.75507824    -0.25200
C3776       C  0.37461606  0.47973858  0.75378838     0.27500
H3777       H  0.38268096  0.51918597  0.71477525     0.13200
N3778       N  0.33928247  0.52506731  0.71370511    -0.82500
H3779       H  0.34311047  0.46976709  0.76633133     0.18100
N3780       N  0.38662440  0.46446229  0.76726716    -0.81100
H3781       H  0.35010904  0.53346205  0.70327911     0.33700
H3782       H  0.33251058  0.53687783  0.72421533     0.38200
H3783       H  0.37595343  0.45545565  0.77732870     0.33700
H3784       H  0.39427449  0.45318566  0.75677196     0.30400
H3785       H  0.42023891  0.48130846  0.68508733     0.33700
H3786       H  0.40112137  0.46946950  0.70109316     0.30400
H3787       H  0.46608559  0.51737403  0.77359806     0.38200
H3788       H  0.44685686  0.50560115  0.78949020     0.33700
C3789       C  0.51184586  0.49186071  0.78824752    -0.20000
C3790       C  0.51441441  0.51180938  0.79984608     0.36200
C3791       C  0.51450116  0.51155169  0.82305071    -0.26000
C3792       C  0.51196288  0.49185003  0.83489662     0.02600
C3793       C  0.50975044  0.47193091  0.82330386     0.27400
C3794       C  0.50966179  0.47216636  0.80017428    -0.25100
N3795       N  0.51640484  0.53227969  0.78813938    -0.82500
H3796       H  0.51607819  0.52685316  0.83198535     0.13200
C3797       C  0.51134761  0.49224105  0.85942590     0.02600
N3798       N  0.50771253  0.45151039  0.83509953    -0.81100
H3799       H  0.50806624  0.45678108  0.79139139     0.18100
C3800       C  0.49292327  0.48385933  0.87054157    -0.25900
C3801       C  0.49180831  0.48350050  0.89370154     0.36100
C3802       C  0.50968114  0.49154898  0.90612042    -0.20000
C3803       C  0.52792412  0.50033494  0.89487899    -0.25200
C3804       C  0.52898565  0.50067140  0.87173389     0.27500
H3805       H  0.47923124  0.47773592  0.86103490     0.13200
N3806       N  0.47244640  0.47532557  0.90453931    -0.82500
H3807       H  0.54167287  0.50661400  0.90418922     0.18100
N3808       N  0.54806148  0.50922025  0.86067891    -0.81100
H3809       H  0.46104005  0.46974153  0.89302601     0.33700
H3810       H  0.46506426  0.48854547  0.91269179     0.38200
H3811       H  0.55952870  0.51490326  0.87207944     0.33700
H3812       H  0.55551439  0.49620941  0.85226254     0.30400
H3813       H  0.50606606  0.43837555  0.82416946     0.33700
H3814       H  0.52235570  0.44892673  0.84365355     0.30400
H3815       H  0.50170807  0.53503264  0.77975084     0.38200
H3816       H  0.51826363  0.54534315  0.79911856     0.33700
C3817       C  0.59957451  0.58424650  0.64301977    -0.20000
C3818       C  0.60893078  0.56725331  0.65578860     0.36200
C3819       C  0.59524285  0.55272295  0.66752626    -0.26000
C3820       C  0.57231252  0.55477685  0.66678741     0.02600
C3821       C  0.56292039  0.57128813  0.65334415     0.27400
C3822       C  0.57667185  0.58587112  0.64157366    -0.25100
N3823       N  0.63237632  0.56514383  0.65708931    -0.82500
H3824       H  0.60249337  0.54006732  0.67778092     0.13200
C3825       C  0.55850413  0.54003018  0.68085106     0.02600
N3826       N  0.53947132  0.57335195  0.65197483    -0.81100
H3827       H  0.56952676  0.59903799  0.63192275     0.18100
C3828       C  0.54501826  0.54914624  0.69719944    -0.25900
C3829       C  0.53244942  0.53579003  0.71134947     0.36100
C3830       C  0.53316859  0.51255413  0.70947243    -0.20000
C3831       C  0.54678672  0.50355084  0.69286387    -0.25200
C3832       C  0.55931748  0.51698847  0.67862489     0.27500
H3833       H  0.54441626  0.56683350  0.69918987     0.13200
N3834       N  0.51893808  0.54599706  0.72777032    -0.82500
H3835       H  0.54777013  0.48608222  0.69041882     0.18100
N3836       N  0.57277399  0.50730749  0.66172084    -0.81100
H3837       H  0.50791253  0.55652556  0.71983521     0.33700
H3838       H  0.52900868  0.55550226  0.73786507     0.38200
H3839       H  0.57173237  0.49016421  0.66221031     0.33700
H3840       H  0.56643700  0.51224995  0.64651474     0.30400
H3841       H  0.53518283  0.58634400  0.64153038     0.33700
H3842       H  0.53349108  0.55901063  0.64471752     0.30400
H3843       H  0.63799890  0.56111354  0.64132772     0.38200
H3844       H  0.63670483  0.55204681  0.66737121     0.33700
C3845       C  0.50658724  0.23944264  0.65995649    -0.20000
C3846       C  0.50227930  0.26016262  0.65029447     0.36200
C3847       C  0.50053277  0.26190828  0.62727567    -0.26000
C3848       C  0.50350612  0.24352176  0.61376771     0.02600
C3849       C  0.50796879  0.22285824  0.62333761     0.27400
C3850       C  0.50920904  0.22096169  0.64641460    -0.25100
N3851       N  0.49893938  0.27919630  0.66390296    -0.82500
H3852       H  0.49707524  0.27771296  0.61976976     0.13200
C3853       C  0.50214742  0.24621487  0.58955852     0.02600
N3854       N  0.51130058  0.20396928  0.60954870    -0.81100
H3855       H  0.51252484  0.20510165  0.65386695     0.18100
C3856       C  0.52153209  0.24656469  0.57712035    -0.25900
C3857       C  0.52090701  0.24870568  0.55413238     0.36100
C3858       C  0.50052602  0.25010414  0.54323606    -0.20000
C3859       C  0.48112450  0.25049516  0.55579941    -0.25200
C3860       C  0.48175112  0.24855291  0.57890998     0.27500
H3861       H  0.53724384  0.24522001  0.58532702     0.13200
N3862       N  0.54105028  0.24985974  0.54194553    -0.82500
H3863       H  0.46543481  0.25150520  0.54752631     0.18100
N3864       N  0.46180179  0.24861982  0.59161026    -0.81100
H3865       H  0.55003703  0.26324471  0.54776244     0.33700
H3866       H  0.55006808  0.23557149  0.54514387     0.38200
H3867       H  0.44821167  0.25060353  0.58133075     0.33700
H3868       H  0.46024911  0.23315696  0.59899641     0.30400
H3869       H  0.51462384  0.19005614  0.61912000     0.33700
H3870       H  0.49657253  0.20090311  0.60134135     0.30400
H3871       H  0.51399631  0.28314804  0.67104112     0.38200
H3872       H  0.49451450  0.29276874  0.65428988     0.33700
C3873       C  0.59516493  0.23750444  0.74447307    -0.20000
C3874       C  0.60861250  0.22064359  0.75334967     0.36200
C3875       C  0.63145694  0.22365250  0.75417041    -0.26000
C3876       C  0.64117865  0.24287704  0.74604646     0.02600
C3877       C  0.62795479  0.25960402  0.73707130     0.27400
C3878       C  0.60512207  0.25674228  0.73631995    -0.25100
N3879       N  0.59919107  0.20042993  0.76121369    -0.82500
H3880       H  0.64183763  0.21074535  0.76075061     0.13200
C3881       C  0.66536974  0.24476960  0.74601111     0.02600
N3882       N  0.63781045  0.27947952  0.72889302    -0.81100
H3883       H  0.59504997  0.26981483  0.72961533     0.18100
C3884       C  0.67644571  0.24543243  0.72579250    -0.25900
C3885       C  0.69941199  0.24639043  0.72487778     0.36100
C3886       C  0.71156026  0.24610289  0.74465026    -0.20000
C3887       C  0.70041788  0.24609124  0.76492598    -0.25200
C3888       C  0.67735909  0.24552743  0.76579086     0.27500
H3889       H  0.66707841  0.24512218  0.71066121     0.13200
N3890       N  0.71038837  0.24800182  0.70395511    -0.82500
H3891       H  0.70973836  0.24605338  0.78008535     0.18100
N3892       N  0.66603757  0.24562890  0.78659346    -0.81100
H3893       H  0.69909426  0.24768850  0.69104371     0.33700
H3894       H  0.71800901  0.26336578  0.70330614     0.38200
H3895       H  0.67724687  0.24620723  0.79957014     0.33700
H3896       H  0.65683124  0.26012822  0.78739634     0.30400
H3897       H  0.62582824  0.29015292  0.72274375     0.33700
H3898       H  0.64507502  0.28744676  0.74223534     0.30400
H3899       H  0.59258141  0.19228450  0.74763472     0.38200
H3900       H  0.61131649  0.19008071  0.76763180     0.33700
C3901       C  0.50546673  0.31959687  0.74532618    -0.20000
C3902       C  0.49304756  0.33214356  0.76063865     0.36200
C3903       C  0.49294189  0.35527521  0.75900275    -0.26000
C3904       C  0.50444629  0.36618095  0.74217444     0.02600
C3905       C  0.51610678  0.35373590  0.72646974     0.27400
C3906       C  0.51667574  0.33073432  0.72832624    -0.25100
N3907       N  0.48078791  0.32156576  0.77792758    -0.82500
H3908       H  0.48394845  0.36490288  0.77102043     0.13200
C3909       C  0.50478797  0.39065104  0.74140496     0.02600
N3910       N  0.52728724  0.36455739  0.70859646    -0.81100
H3911       H  0.52591190  0.32147266  0.71621685     0.18100
C3912       C  0.52506554  0.40153212  0.74216419    -0.25900
C3913       C  0.52630712  0.42450873  0.74077234     0.36100
C3914       C  0.50696800  0.43702313  0.73859117    -0.20000
C3915       C  0.48660965  0.42625278  0.73842642    -0.25200
C3916       C  0.48531414  0.40315458  0.73960895     0.27500
H3917       H  0.54006535  0.39209909  0.74393956     0.13200
N3918       N  0.54721149  0.43510749  0.74222009    -0.82500
H3919       H  0.47170898  0.43588399  0.73689581     0.18100
N3920       N  0.46438569  0.39235215  0.73863732    -0.81100
H3921       H  0.55437921  0.43061871  0.75718988     0.33700
H3922       H  0.55716099  0.42913735  0.72950220     0.38200
H3923       H  0.45171076  0.40389455  0.73738911     0.33700
H3924       H  0.46407250  0.38307703  0.72417527     0.30400
H3925       H  0.53519993  0.35310699  0.69849452     0.33700
H3926       H  0.51539526  0.37227831  0.69889270     0.30400
H3927       H  0.46772874  0.31327344  0.77056575     0.38200
H3928       H  0.47369785  0.33322164  0.78840334     0.33700
C3929       C  0.51496255  0.23143636  0.83105842    -0.20000
C3930       C  0.53272811  0.22137325  0.84230366     0.36200
C3931       C  0.53337335  0.22193802  0.86547015    -0.26000
C3932       C  0.51687383  0.23245294  0.87770795     0.02600
C3933       C  0.49911323  0.24232143  0.86660281     0.27400
C3934       C  0.49839180  0.24178648  0.84348702    -0.25100
N3935       N  0.55027683  0.21098206  0.83030283    -0.82500
H3936       H  0.54710124  0.21455432  0.87405997     0.13200
C3937       C  0.51858070  0.23346181  0.90212857     0.02600
N3938       N  0.48178795  0.25274938  0.87888962    -0.81100
H3939       H  0.48464548  0.24941428  0.83515801     0.18100
C3940       C  0.51881275  0.25403778  0.91252955    -0.25900
C3941       C  0.51984702  0.25577409  0.93558276     0.36100
C3942       C  0.52056302  0.23649591  0.94854652    -0.20000
C3943       C  0.52091931  0.21591532  0.93811387    -0.25200
C3944       C  0.51982626  0.21418894  0.91504643     0.27500
H3945       H  0.51827160  0.26882250  0.90255691     0.13200
N3946       N  0.52046980  0.27703393  0.94583115    -0.82500
H3947       H  0.52134717  0.20110060  0.94804021     0.18100
N3948       N  0.51950019  0.19296101  0.90471529    -0.81100
H3949       H  0.51972011  0.28952068  0.93399630     0.33700
H3950       H  0.53565408  0.27853462  0.95363494     0.38200
H3951       H  0.52061519  0.18046723  0.91651535     0.33700
H3952       H  0.50425535  0.19118586  0.89708959     0.30400
H3953       H  0.46998890  0.25934154  0.86829201     0.33700
H3954       H  0.47392098  0.24058926  0.88818838     0.30400
H3955       H  0.55871404  0.22329362  0.82173902     0.38200
H3956       H  0.56160228  0.20385924  0.84108227     0.33700
C3957       C  0.51197884  0.14775670  0.74255734    -0.20000
C3958       C  0.50358628  0.13536872  0.72477878     0.36200
C3959       C  0.50348254  0.11225282  0.72606414    -0.26000
C3960       C  0.51159574  0.10115138  0.74463012     0.02600
C3961       C  0.52040293  0.11343287  0.76215690     0.27400
C3962       C  0.52064124  0.13651612  0.76086383    -0.25100
N3963       N  0.49538514  0.14618968  0.70540260    -0.82500
H3964       H  0.49711716  0.10277437  0.71243425     0.13200
C3965       C  0.51063838  0.07668025  0.74551816     0.02600
N3966       N  0.52867291  0.10243121  0.78140595    -0.81100
H3967       H  0.52712936  0.14578885  0.77457065     0.18100
C3968       C  0.53003271  0.06455913  0.74847731    -0.25900
C3969       C  0.52974912  0.04148698  0.74910235     0.36100
C3970       C  0.50972521  0.03013660  0.74678242    -0.20000
C3971       C  0.49029259  0.04224556  0.74403232    -0.25200
C3972       C  0.49053398  0.06537850  0.74333629     0.27500
H3973       H  0.54555061  0.07306005  0.75011465     0.13200
N3974       N  0.54983282  0.02970573  0.75241446    -0.82500
H3975       H  0.47491387  0.03359637  0.74197770     0.18100
N3976       N  0.47044907  0.07745203  0.74041668    -0.81100
H3977       H  0.56065558  0.03386964  0.73968128     0.33700
H3978       H  0.55671477  0.03501311  0.76721746     0.38200
H3979       H  0.45716578  0.06672763  0.73885748     0.33700
H3980       H  0.46769849  0.08657606  0.75473052     0.30400
H3981       H  0.53467565  0.11380164  0.79275827     0.33700
H3982       H  0.51547141  0.09447580  0.78902502     0.30400
H3983       H  0.50862709  0.15409413  0.69779746     0.38200
H3984       H  0.48950757  0.13471410  0.69408813     0.33700
C3985       C  0.25560278  0.23880432  0.79633057    -0.20000
C3986       C  0.25540910  0.21918283  0.80873991     0.36200
C3987       C  0.25714765  0.22005330  0.83178172    -0.26000
C3988       C  0.25946492  0.24018147  0.84271077     0.02600
C3989       C  0.25963025  0.25986414  0.83043718     0.27400
C3990       C  0.25766120  0.25897879  0.80737760    -0.25100
N3991       N  0.25435035  0.19829589  0.79800499    -0.82500
H3992       H  0.25704158  0.20489517  0.84119295     0.13200
C3993       C  0.26108733  0.24038919  0.86708451     0.02600
N3994       N  0.26181891  0.28062164  0.84145301    -0.81100
H3995       H  0.25772771  0.27413876  0.79797424     0.18100
C3996       C  0.28133368  0.24461436  0.87717364    -0.25900
C3997       C  0.28334712  0.24450231  0.90030450     0.36100
C3998       C  0.26460926  0.24052763  0.91346246    -0.20000
C3999       C  0.24436004  0.23657301  0.90329040    -0.25200
C4000       C  0.24245149  0.23628650  0.88023140     0.27500
H4001       H  0.29558100  0.24786204  0.86694893     0.13200
N4002       N  0.30407937  0.24922501  0.91044378    -0.82500
H4003       H  0.22998501  0.23361269  0.91342701     0.18100
N4004       N  0.22165831  0.23192447  0.87004927    -0.81100
H4005       H  0.31594172  0.25272662  0.89845943     0.33700
H4006       H  0.30933085  0.23495493  0.91847858     0.38200
H4007       H  0.20960284  0.22903385  0.88199868     0.33700
H4008       H  0.21692333  0.24612106  0.86155395     0.30400
H4009       H  0.26184298  0.29352439  0.83004551     0.33700
H4010       H  0.24791918  0.28279567  0.85136283     0.30400
H4011       H  0.24062871  0.18992413  0.80408128     0.38200
H4012       H  0.26834302  0.18930368  0.80228578     0.33700
C4013       C  0.23058923  0.21523376  0.71951157    -0.20000
C4014       C  0.20759225  0.21817853  0.72172331     0.36200
C4015       C  0.19301588  0.20601249  0.70868159    -0.26000
C4016       C  0.20073603  0.19094283  0.69305681     0.02600
C4017       C  0.22351251  0.18816824  0.69025624     0.27400
C4018       C  0.23812770  0.20034421  0.70329812    -0.25100
N4019       N  0.19889986  0.23373020  0.73714959    -0.82500
H4020       H  0.17549888  0.20841694  0.71073057     0.13200
C4021       C  0.18486985  0.17779229  0.68001190     0.02600
N4022       N  0.23173487  0.17280563  0.67424009    -0.81100
H4023       H  0.25534283  0.19794847  0.70026004     0.18100
C4024       C  0.18480903  0.17950014  0.65700968    -0.25900
C4025       C  0.17090396  0.16641689  0.64415557     0.36100
C4026       C  0.15647766  0.15113614  0.65427731    -0.20000
C4027       C  0.15630537  0.15001640  0.67754138    -0.25200
C4028       C  0.17039822  0.16299710  0.69038354     0.27500
H4029       H  0.19584582  0.19093077  0.64892546     0.13200
N4030       N  0.17175806  0.16847383  0.62065855    -0.82500
H4031       H  0.14572167  0.13884328  0.68621839     0.18100
N4032       N  0.17043167  0.16084852  0.71397863    -0.81100
H4033       H  0.16813084  0.18477058  0.61653074     0.33700
H4034       H  0.18780108  0.16511125  0.61549454     0.38200
H4035       H  0.15875867  0.14936256  0.71917024     0.33700
H4036       H  0.18574929  0.15461446  0.71858706     0.30400
H4037       H  0.24889093  0.17277057  0.67397510     0.33700
H4038       H  0.22689056  0.15707552  0.67920895     0.30400
H4039       H  0.18946835  0.24518834  0.72846314     0.38200
H4040       H  0.18852383  0.22535253  0.74803410     0.33700
C4041       C  0.25704914  0.29054990  0.74236092    -0.20000
C4042       C  0.23738739  0.30257778  0.74479634     0.36200
C4043       C  0.23818612  0.32564091  0.74520111    -0.26000
C4044       C  0.25825482  0.33680165  0.74363054     0.02600
C4045       C  0.27792707  0.32478177  0.74142755     0.27400
C4046       C  0.27712998  0.30171164  0.74091530    -0.25100
N4047       N  0.21681733  0.29132654  0.74746343    -0.82500
H4048       H  0.22315126  0.33500325  0.74709622     0.13200
C4049       C  0.25829805  0.36113220  0.74414293     0.02600
N4050       N  0.29855193  0.33607720  0.73959505    -0.81100
H4051       H  0.29220545  0.29237101  0.73921517     0.18100
C4052       C  0.26796025  0.37210580  0.76189646    -0.25900
C4053       C  0.26748329  0.39520211  0.76330617     0.36100
C4054       C  0.25738392  0.40756869  0.74630866    -0.20000
C4055       C  0.24788931  0.39632757  0.72848522    -0.25200
C4056       C  0.24828582  0.37331825  0.72722482     0.27500
H4057       H  0.27550399  0.36254362  0.77491844     0.13200
N4058       N  0.27689355  0.40596530  0.78206866    -0.82500
H4059       H  0.24024689  0.40551256  0.71526574     0.18100
N4060       N  0.23865904  0.36222094  0.70876069    -0.81100
H4061       H  0.28407048  0.39449589  0.79269532     0.33700
H4062       H  0.26404780  0.41329352  0.79086442     0.38200
H4063       H  0.23182490  0.37354099  0.69775439     0.33700
H4064       H  0.25129883  0.35419555  0.70028573     0.30400
H4065       H  0.31147090  0.32482550  0.73817567     0.33700
H4066       H  0.29830748  0.34513921  0.72494624     0.30400
H4067       H  0.21753208  0.28245426  0.76221690     0.38200
H4068       H  0.20394596  0.30259193  0.74915533     0.33700
C4069       C  0.30865669  0.23524662  0.74487065    -0.20000
C4070       C  0.32148423  0.23363289  0.72552718     0.36200
C4071       C  0.34441604  0.23228121  0.72725160    -0.26000
C4072       C  0.35475934  0.23292875  0.74782147     0.02600
C4073       C  0.34200652  0.23472450  0.76713466     0.27400
C4074       C  0.31905798  0.23582123  0.76545752    -0.25100
N4075       N  0.31127529  0.23400192  0.70422760    -0.82500
H4076       H  0.35436218  0.23122684  0.71245928     0.13200
C4077       C  0.37903036  0.23230493  0.74870735     0.02600
N4078       N  0.35242580  0.23534271  0.78832210    -0.81100
H4079       H  0.30922926  0.23690659  0.78032334     0.18100
C4080       C  0.39037001  0.25048732  0.75697040    -0.25900
C4081       C  0.41341705  0.25113327  0.75680315     0.36100
C4082       C  0.42537682  0.23294550  0.74846559    -0.20000
C4083       C  0.41387517  0.21469436  0.74035253    -0.25200
C4084       C  0.39083719  0.21416209  0.74047677     0.27500
H4085       H  0.38114319  0.26448866  0.76301480     0.13200
N4086       N  0.42459714  0.27042457  0.76450109    -0.82500
H4087       H  0.42288917  0.20068318  0.73403817     0.18100
N4088       N  0.37933043  0.19527005  0.73232726    -0.81100
H4089       H  0.41338147  0.28206582  0.77037490     0.33700
H4090       H  0.43246229  0.27761061  0.75095648     0.38200
H4091       H  0.39039947  0.18335016  0.72675444     0.33700
H4092       H  0.37078896  0.18828931  0.74556295     0.30400
H4093       H  0.34071366  0.23685153  0.80085816     0.33700
H4094       H  0.36026432  0.22022841  0.79072376     0.30400
H4095       H  0.30381100  0.24937254  0.70228691     0.38200
H4096       H  0.32305419  0.23264814  0.69173970     0.33700
C4097       C  0.01391334  0.99368856  0.78778344    -0.20000
C4098       C  0.01500784  0.01375191  0.79940876     0.36200
C4099       C  0.01456583  0.01346919  0.82259839    -0.26000
C4100       C  0.01281416  0.99362256  0.83432483     0.02600
C4101       C  0.01225584  0.97361803  0.82274840     0.27400
C4102       C  0.01268938  0.97388489  0.79967278    -0.25100
N4103       N  0.01573446  0.03432083  0.78774067    -0.82500
H4104       H  0.01488199  0.02882340  0.83158776     0.13200
C4105       C  0.01078072  0.99394987  0.85868848     0.02600
N4106       N  0.01117825  0.95310293  0.83451622    -0.81100
H4107       H  0.01198323  0.95843675  0.79094433     0.18100
C4108       C  0.99208015  0.98480791  0.86865211    -0.25900
C4109       C  0.98948160  0.98460178  0.89166789     0.36100
C4110       C  0.00611728  0.99365680  0.90506717    -0.20000
C4111       C  0.02472720  0.00299724  0.89492660    -0.25200
C4112       C  0.02727073  0.00313965  0.87194039     0.27500
H4113       H  0.97932857  0.97799003  0.85833958     0.13200
N4114       N  0.96992216  0.97548293  0.90132522    -0.82500
H4115       H  0.03761422  0.00992256  0.90498032     0.18100
N4116       N  0.04667685  0.01228387  0.86200777    -0.81100
H4117       H  0.95966054  0.96908097  0.88917344     0.33700
H4118       H  0.96126518  0.98837305  0.90871946     0.38200
H4119       H  0.05718572  0.01849779  0.87404286     0.33700
H4120       H  0.05511257  0.99947098  0.85423789     0.30400
H4121       H  0.01072235  0.93988211  0.82356534     0.33700
H4122       H  0.02568927  0.95147312  0.84351239     0.30400
H4123       H  0.00095622  0.03603502  0.77920791     0.38200
H4124       H  0.01655881  0.04746718  0.79875461     0.33700
C4125       C  0.95914063  0.99073076  0.73578471    -0.20000
C4126       C  0.94691024  0.99183670  0.75556621     0.36200
C4127       C  0.92393548  0.99068427  0.75473887    -0.26000
C4128       C  0.91302883  0.98893180  0.73458065     0.02600
C4129       C  0.92512183  0.98807356  0.71481182     0.27400
C4130       C  0.94811853  0.98898676  0.71560114    -0.25100
N4131       N  0.95777898  0.99467727  0.77633126    -0.82500
H4132       H  0.91441396  0.99162661  0.76981924     0.13200
C4133       C  0.88883326  0.98889042  0.73444988     0.02600
N4134       N  0.91396265  0.98616893  0.69409528    -0.81100
H4135       H  0.95749827  0.98793936  0.70044772     0.18100
C4136       C  0.87775316  0.00749466  0.72666841    -0.25900
C4137       C  0.85476164  0.00867019  0.72727359     0.36100
C4138       C  0.84263240  0.99050212  0.73532562    -0.20000
C4139       C  0.85390145  0.97188442  0.74317041    -0.25200
C4140       C  0.87691467  0.97091316  0.74280260     0.27500
H4141       H  0.88716283  0.02135822  0.72059977     0.13200
N4142       N  0.84380728  0.02843421  0.72027311    -0.82500
H4143       H  0.84473765  0.95793178  0.74939250     0.18100
N4144       N  0.88827275  0.95178384  0.75081717    -0.81100
H4145       H  0.85514416  0.04004434  0.71460908     0.33700
H4146       H  0.83622240  0.03530096  0.73412105     0.38200
H4147       H  0.87710657  0.94004517  0.75655057     0.33700
H4148       H  0.89653557  0.94470266  0.73747759     0.30400
H4149       H  0.92525077  0.98584933  0.68108933     0.33700
H4150       H  0.90591169  0.97101051  0.69400487     0.30400
H4151       H  0.96542981  0.01003757  0.77602798     0.38200
H4152       H  0.94639429  0.99507574  0.78924946     0.33700
C4153       C  0.01233204  0.93879026  0.73760102    -0.20000
C4154       C  0.02664202  0.92750090  0.75180444     0.36200
C4155       C  0.02558916  0.90447193  0.75301330    -0.26000
C4156       C  0.01111844  0.89257294  0.73958966     0.02600
C4157       C  0.99729215  0.90405610  0.72482867     0.27400
C4158       C  0.99779490  0.92711632  0.72429561    -0.25100
N4159       N  0.04201015  0.93949819  0.76502534    -0.82500
H4160       H  0.03605703  0.89576865  0.76449281     0.13200
C4161       C  0.01048979  0.86816410  0.74117707     0.02600
N4162       N  0.98297259  0.89225231  0.71030400    -0.81100
H4163       H  0.98695211  0.93606185  0.71334314     0.18100
C4164       C  0.99021083  0.85758984  0.74422867    -0.25900
C4165       C  0.98872358  0.83456271  0.74479154     0.36100
C4166       C  0.00797975  0.82187610  0.74277489    -0.20000
C4167       C  0.02835732  0.83236669  0.74067546    -0.25200
C4168       C  0.02980807  0.85537550  0.73945939     0.27500
H4169       H  0.97545502  0.86737462  0.74614378     0.13200
N4170       N  0.96781280  0.82402129  0.74768698    -0.82500
H4171       H  0.04312841  0.82251152  0.73920424     0.18100
N4172       N  0.05072820  0.86573987  0.73597931    -0.81100
H4173       H  0.95525939  0.83571407  0.74879686     0.33700
H4174       H  0.96813692  0.81572778  0.76278266     0.38200
H4175       H  0.06326039  0.85400017  0.73518045     0.33700
H4176       H  0.05027587  0.87350759  0.72061145     0.30400
H4177       H  0.97385526  0.90314265  0.70061188     0.33700
H4178       H  0.99282978  0.88316121  0.69951988     0.30400
H4179       H  0.05302108  0.94731349  0.75434642     0.38200
H4180       H  0.05127268  0.92874586  0.77472892     0.33700
C4181       C  0.03401884  0.01499244  0.70883781    -0.20000
C4182       C  0.03034595  0.03803037  0.70867196     0.36200
C4183       C  0.04229764  0.05167713  0.69429383    -0.26000
C4184       C  0.05832576  0.04298049  0.68020344     0.02600
C4185       C  0.06216378  0.02018505  0.68012914     0.27400
C4186       C  0.05011914  0.00649624  0.69435966    -0.25100
N4187       N  0.01465560  0.04773672  0.72336823    -0.82500
H4188       H  0.03958178  0.06928168  0.69470496     0.13200
C4189       C  0.07286890  0.05803778  0.66762927     0.02600
N4190       N  0.07863888  0.01107038  0.66577240    -0.81100
H4191       H  0.05404068  0.98928788  0.69404546     0.18100
C4192       C  0.09509588  0.05874857  0.67329747    -0.25900
C4193       C  0.10944542  0.07343959  0.66296274     0.36100
C4194       C  0.10154634  0.08798044  0.64668319    -0.20000
C4195       C  0.07947642  0.08669266  0.64024336    -0.25200
C4196       C  0.06497966  0.07180384  0.65064399     0.27500
H4197       H  0.10129548  0.04805562  0.68616642     0.13200
N4198       N  0.13212137  0.07356771  0.66909394    -0.82500
H4199       H  0.07341352  0.09780677  0.62768041     0.18100
N4200       N  0.04233383  0.07072853  0.64424173    -0.81100
H4201       H  0.13304501  0.07686818  0.68595150     0.33700
H4202       H  0.13849757  0.05782667  0.66643502     0.38200
H4203       H  0.03916117  0.08193092  0.63155834     0.33700
H4204       H  0.03957627  0.05506560  0.63778312     0.30400
H4205       H  0.07974696  0.99403583  0.66779227     0.33700
H4206       H  0.07357699  0.01384102  0.64956963     0.30400
H4207       H  0.02282584  0.05915606  0.73319985     0.38200
H4208       H  0.00305441  0.05620793  0.71394077     0.33700
C4209       C  0.75375721  0.78768690  0.73932449    -0.20000
C4210       C  0.73462313  0.80065507  0.73797894     0.36200
C4211       C  0.73634873  0.82363774  0.73745301    -0.26000
C4212       C  0.75690139  0.83398772  0.73831271     0.02600
C4213       C  0.77608246  0.82103730  0.73985858     0.27400
C4214       C  0.77428507  0.79803126  0.74045278    -0.25100
N4215       N  0.71339170  0.79060495  0.73788492    -0.82500
H4216       H  0.72152700  0.83347919  0.73665496     0.13200
C4217       C  0.75807769  0.85837279  0.73769729     0.02600
N4218       N  0.79730150  0.83129712  0.74057474    -0.81100
H4219       H  0.78903708  0.78810632  0.74142363     0.18100
C4220       C  0.76859770  0.86958205  0.75479748    -0.25900
C4221       C  0.77024758  0.89263224  0.75476467     0.36100
C4222       C  0.76035530  0.90489954  0.73754451    -0.20000
C4223       C  0.74986927  0.89348275  0.72040671    -0.25200
C4224       C  0.74887967  0.87042498  0.72016632     0.27500
H4225       H  0.77564075  0.86023341  0.76824844     0.13200
N4226       N  0.78175673  0.90344065  0.77228207    -0.82500
H4227       H  0.74246606  0.90254848  0.70697036     0.18100
N4228       N  0.73871658  0.85917066  0.70209304    -0.81100
H4229       H  0.78688901  0.89207822  0.78414899     0.33700
H4230       H  0.79607800  0.91012756  0.76552323     0.38200
H4231       H  0.73268056  0.87040549  0.69054514     0.33700
H4232       H  0.75090092  0.85002667  0.69409670     0.30400
H4233       H  0.80970256  0.81946617  0.74187683     0.33700
H4234       H  0.79974063  0.83937748  0.72555334     0.30400
H4235       H  0.70527898  0.79556650  0.72356704     0.38200
H4236       H  0.70453288  0.79653356  0.75140571     0.33700
C4237       C  0.80441660  0.73339031  0.74204723    -0.20000
C4238       C  0.81649576  0.73303289  0.76181666     0.36200
C4239       C  0.83952992  0.73356379  0.76108501    -0.26000
C4240       C  0.85076164  0.73431294  0.74090662     0.02600
C4241       C  0.83876921  0.73389342  0.72115642     0.27400
C4242       C  0.81574400  0.73356574  0.72185735    -0.25100
N4243       N  0.80547820  0.73151049  0.78263865    -0.82500
H4244       H  0.84870308  0.73338030  0.77633913     0.13200
C4245       C  0.87507244  0.73491072  0.74078740     0.02600
N4246       N  0.84995062  0.73353132  0.70037623    -0.81100
H4247       H  0.80669478  0.73375071  0.70653399     0.18100
C4248       C  0.88673226  0.71596478  0.74679787    -0.25900
C4249       C  0.90981022  0.71584759  0.74736320     0.36100
C4250       C  0.92146124  0.73526806  0.74206247    -0.20000
C4251       C  0.90966955  0.75420392  0.73596701    -0.25200
C4252       C  0.88659479  0.75427685  0.73541822     0.27500
H4253       H  0.87773337  0.70116085  0.75092561     0.13200
N4254       N  0.92139004  0.69600694  0.75298573    -0.82500
H4255       H  0.91848684  0.76916179  0.73202761     0.18100
N4256       N  0.87483385  0.77416013  0.73034724    -0.81100
H4257       H  0.91037928  0.68335010  0.75667741     0.33700
H4258       H  0.93016164  0.69101130  0.73903448     0.38200
H4259       H  0.88574407  0.78717353  0.72783827     0.33700
H4260       H  0.86674711  0.77186625  0.71540603     0.30400
H4261       H  0.84522305  0.71930174  0.69204448     0.33700
H4262       H  0.84462679  0.74705404  0.69116362     0.30400
H4263       H  0.81094800  0.71728844  0.79062557     0.38200
H4264       H  0.81005681  0.74503803  0.79214148     0.33700
C4265       C  0.74880482  0.73531305  0.79335596    -0.20000
C4266       C  0.74618319  0.75501711  0.80516937     0.36200
C4267       C  0.74651756  0.75464744  0.82823359    -0.26000
C4268       C  0.74949676  0.73488076  0.83974786     0.02600
C4269       C  0.75191205  0.71497065  0.82791672     0.27400
C4270       C  0.75129773  0.71545027  0.80483524    -0.25100
N4271       N  0.74284299  0.77538685  0.79377663    -0.82500
H4272       H  0.74454623  0.76989500  0.83722645     0.13200
C4273       C  0.75039583  0.73567620  0.86404138     0.02600
N4274       N  0.75535754  0.69413244  0.83862265    -0.81100
H4275       H  0.75351588  0.70027800  0.79577609     0.18100
C4276       C  0.73187288  0.72964297  0.87630464    -0.25900
C4277       C  0.73217262  0.73015560  0.89938301     0.36100
C4278       C  0.75141036  0.73678950  0.91049851    -0.20000
C4279       C  0.76982861  0.74320565  0.89804398    -0.25200
C4280       C  0.76953096  0.74259840  0.87490729     0.27500
H4281       H  0.71708617  0.72454120  0.86788896     0.13200
N4282       N  0.71274095  0.72433290  0.91138576    -0.82500
H4283       H  0.78465520  0.74831352  0.90636430     0.18100
N4284       N  0.78855997  0.74890461  0.86235382    -0.81100
H4285       H  0.70006104  0.73479537  0.90638662     0.33700
H4286       H  0.70845404  0.70827540  0.90710101     0.38200
H4287       H  0.80125782  0.75372589  0.87281154     0.33700
H4288       H  0.79414825  0.73499092  0.85395304     0.30400
H4289       H  0.77085316  0.68839691  0.83387668     0.33700
H4290       H  0.75571647  0.69562071  0.85571979     0.30400
H4291       H  0.75531097  0.78620892  0.79836766     0.38200
H4292       H  0.72786518  0.78202736  0.79897408     0.33700
C4293       C  0.72653685  0.71241366  0.71646114    -0.20000
C4294       C  0.70362228  0.71652240  0.71746394     0.36200
C4295       C  0.68909365  0.70469389  0.70406825    -0.26000
C4296       C  0.69671307  0.68833169  0.68974092     0.02600
C4297       C  0.71938753  0.68376872  0.68883900     0.27400
C4298       C  0.73399641  0.69585451  0.70198712    -0.25100
N4299       N  0.69495845  0.73277389  0.73217654    -0.82500
H4300       H  0.67168816  0.70830105  0.70492326     0.13200
C4301       C  0.68087067  0.67555332  0.67619822     0.02600
N4302       N  0.72748434  0.66655307  0.67477692    -0.81100
H4303       H  0.75111289  0.69170797  0.70083664     0.18100
C4304       C  0.68331145  0.67506251  0.65324596    -0.25900
C4305       C  0.66991172  0.66171562  0.64011077     0.36100
C4306       C  0.65375857  0.64804862  0.64992539    -0.20000
C4307       C  0.65045348  0.64985892  0.67289475    -0.25200
C4308       C  0.66387715  0.66325876  0.68605331     0.27500
H4309       H  0.69592751  0.68495166  0.64545096     0.13200
N4310       N  0.67295269  0.66194255  0.61670185    -0.82500
H4311       H  0.63752686  0.64096670  0.68105340     0.18100
N4312       N  0.66055550  0.66408844  0.70949687    -0.81100
H4313       H  0.68919470  0.65748784  0.61329901     0.33700
H4314       H  0.67055744  0.67802860  0.61110028     0.38200
H4315       H  0.64723936  0.65431893  0.71421101     0.33700
H4316       H  0.67443933  0.65728923  0.71696275     0.30400
H4317       H  0.74456314  0.66526291  0.67582328     0.33700
H4318       H  0.72109825  0.65169514  0.68060943     0.30400
H4319       H  0.68379610  0.72507964  0.74278426     0.38200
H4320       H  0.68639488  0.74442468  0.72286699     0.33700
C4321       C  0.80142325  0.99237300  0.99022974    -0.20000
C4322       C  0.81441468  0.97319777  0.99083107     0.36200
C4323       C  0.83732861  0.97494560  0.99057498    -0.26000
C4324       C  0.84748668  0.99553817  0.98967805     0.02600
C4325       C  0.83465816  0.01479024  0.98890931     0.27400
C4326       C  0.81166942  0.01302354  0.98925048    -0.25100
N4327       N  0.80445017  0.95194886  0.99227745    -0.82500
H4328       H  0.84726592  0.96016093  0.99119075     0.13200
C4329       C  0.87164337  0.99655471  0.98960323     0.02600
N4330       N  0.84503593  0.03594530  0.98746583    -0.81100
H4331       H  0.80170116  0.02777073  0.98845672     0.18100
C4332       C  0.88286493  0.99649413  0.96944407    -0.25900
C4333       C  0.90591367  0.99603925  0.96871619     0.36100
C4334       C  0.91780290  0.99596126  0.98863801    -0.20000
C4335       C  0.90645481  0.99661124  0.00880033    -0.25200
C4336       C  0.88342692  0.99667472  0.00947889     0.27500
H4337       H  0.87356626  0.99647473  0.95426803     0.13200
N4338       N  0.91721579  0.99638572  0.94789085    -0.82500
H4339       H  0.91561076  0.99661174  0.02406628     0.18100
N4340       N  0.87193151  0.99636071  0.03019917    -0.81100
H4341       H  0.90604003  0.99810406  0.93497567     0.33700
H4342       H  0.92464145  0.98104135  0.94574797     0.38200
H4343       H  0.88303563  0.99609981  0.04327934     0.33700
H4344       H  0.86312869  0.01106104  0.03152903     0.30400
H4345       H  0.83324105  0.04842384  0.98668383     0.33700
H4346       H  0.85377701  0.03841200  0.00202213     0.30400
H4347       H  0.81022078  0.94419524  0.00650349     0.38200
H4348       H  0.80963720  0.94271968  0.97871361     0.33700
C4349       C  0.75042353  0.99384985  0.93780466    -0.20000
C4350       C  0.75380257  0.01436310  0.92738981     0.36200
C4351       C  0.75530060  0.01531143  0.90430338    -0.26000
C4352       C  0.75381317  0.99613937  0.89166815     0.02600
C4353       C  0.75051449  0.97571249  0.90204662     0.27400
C4354       C  0.74913048  0.97477132  0.92503999    -0.25100
N4355       N  0.75632352  0.03397109  0.94028471    -0.82500
H4356       H  0.75798507  0.03093270  0.89612533     0.13200
C4357       C  0.75575226  0.99742168  0.86750014     0.02600
N4358       N  0.74848994  0.95605095  0.88912564    -0.81100
H4359       H  0.74686327  0.95908463  0.93297065     0.18100
C4360       C  0.77410766  0.98806517  0.85720571    -0.25900
C4361       C  0.77578785  0.98731912  0.83416504     0.36100
C4362       C  0.75839405  0.99571085  0.82120847    -0.20000
C4363       C  0.74036871  0.00576370  0.83172399    -0.25200
C4364       C  0.73887964  0.00667491  0.85475247     0.27500
H4365       H  0.78709740  0.98119996  0.86726045     0.13200
N4366       N  0.79508072  0.97815252  0.82400039    -0.82500
H4367       H  0.72704851  0.01241897  0.82198830     0.18100
N4368       N  0.72010718  0.01649881  0.86527374    -0.81100
H4369       H  0.80605127  0.97242950  0.83591758     0.33700
H4370       H  0.80307414  0.99089183  0.81563791     0.38200
H4371       H  0.70920048  0.02268785  0.85353369     0.33700
H4372       H  0.71176839  0.00408085  0.87377891     0.30400
H4373       H  0.74619563  0.94235313  0.89930533     0.33700
H4374       H  0.73428325  0.95757852  0.87963564     0.30400
H4375       H  0.77058286  0.03216938  0.94965284     0.38200
H4376       H  0.75877355  0.04761880  0.93007746     0.33700
C4377       C  0.74899365  0.93877857  0.99118767    -0.20000
C4378       C  0.75628730  0.92757810  0.01010220     0.36200
C4379       C  0.75786341  0.90454191  0.00992336    -0.26000
C4380       C  0.75217899  0.89257146  0.99109463     0.02600
C4381       C  0.74464060  0.90370671  0.97221997     0.27400
C4382       C  0.74304702  0.92674116  0.97250863    -0.25100
N4383       N  0.76239548  0.93959298  0.02936375    -0.82500
H4384       H  0.76349252  0.89596195  0.02451253     0.13200
C4385       C  0.75325911  0.86830776  0.99159429     0.02600
N4386       N  0.73847344  0.89153284  0.95296009    -0.81100
H4387       H  0.73684530  0.93527325  0.95824278     0.18100
C4388       C  0.73407596  0.85648961  0.99603427    -0.25900
C4389       C  0.73425688  0.83346314  0.99658831     0.36100
C4390       C  0.75402177  0.82191135  0.99261344    -0.20000
C4391       C  0.77319759  0.83385094  0.98781350    -0.25200
C4392       C  0.77300642  0.85699119  0.98731682     0.27500
H4393       H  0.71883682  0.86522039  0.99904568     0.13200
N4394       N  0.71418837  0.82190391  0.00070126    -0.82500
H4395       H  0.78841710  0.82512877  0.98473432     0.18100
N4396       N  0.79274494  0.86905948  0.98265321    -0.81100
H4397       H  0.70285892  0.82653795  0.98865496     0.33700
H4398       H  0.70807216  0.82691763  0.01599651     0.38200
H4399       H  0.80590339  0.85829803  0.98009469     0.33700
H4400       H  0.79040584  0.87751917  0.96783853     0.30400
H4401       H  0.73309319  0.90218226  0.94055254     0.33700
H4402       H  0.75256300  0.88376079  0.94690418     0.30400
H4403       H  0.75252924  0.93422877  0.04242572     0.38200
H4404       H  0.77866821  0.93567694  0.03311228     0.33700
C4405       C  0.72592125  0.01503883  0.01613069    -0.20000
C4406       C  0.72872880  0.01242832  0.03916795     0.36200
C4407       C  0.71732241  0.02600647  0.05397352    -0.26000
C4408       C  0.70299141  0.04235152  0.04643475     0.02600
C4409       C  0.69960260  0.04487469  0.02367296     0.27400
C4410       C  0.71105060  0.03132567  0.00879679    -0.25100
N4411       N  0.74337373  0.99603835  0.04765635    -0.82500
H4412       H  0.71979392  0.02386448  0.07151304     0.13200
C4413       C  0.69109272  0.05633679  0.06254965     0.02600
N4414       N  0.68437578  0.06114871  0.01576501    -0.81100
H4415       H  0.70801207  0.03391591  0.99157267     0.18100
C4416       C  0.69507817  0.07898248  0.06312959    -0.25900
C4417       C  0.68336433  0.09277531  0.07752447     0.36100
C4418       C  0.66744903  0.08389160  0.09214270    -0.20000
C4419       C  0.66365458  0.06097660  0.09131321    -0.25200
C4420       C  0.67517732  0.04726091  0.07667145     0.27500
H4421       H  0.70716335  0.08606743  0.05207552     0.13200
N4422       N  0.68737912  0.11596158  0.07686264    -0.82500
H4423       H  0.65109628  0.05338487  0.10117202     0.18100
N4424       N  0.67032806  0.02415861  0.07561581    -0.81100
H4425       H  0.68426229  0.12156271  0.06088487     0.33700
H4426       H  0.70398571  0.11857335  0.08021601     0.38200
H4427       H  0.65822760  0.01992112  0.08710621     0.33700
H4428       H  0.66375433  0.02099387  0.06006717     0.30400
H4429       H  0.68377759  0.06110509  0.99856380     0.33700
H4430       H  0.66873247  0.05670226  0.02130973     0.30400
H4431       H  0.73438541  0.98553639  0.05791333     0.38200
H4432       H  0.75521374  0.00389401  0.05723008     0.33700
loop_ 
_geom_bond_atom_site_label_1 
_geom_bond_atom_site_label_2 
_geom_bond_distance 
_geom_bond_site_symmetry_2 
_ccdc_geom_bond_type 
C1            C2   1.540       .  S
C1            C7   1.544   1_545  S
C1            C5   1.550   1_554  S
C1         C4405   1.539       .  S
C2            H9   1.086       .  S
C2            C3   1.365   1_544  D
C3            C4   1.534       .  S
C3         C4321   1.481       .  S
C4            C8   1.533       .  S
C4            C6   1.531       .  S
C4           H10   1.111       .  S
C5           H11   1.080       .  S
C5            C6   1.365   1_545  D
C6         C4349   1.480       .  S
C7           H12   1.086       .  S
C7            C8   1.366   1_554  D
C8         C4377   1.480       .  S
C13          C14   1.542       .  S
C13          C19   1.542       .  S
C13          C17   1.552       .  S
C13        C4293   1.541       .  S
C14          H21   1.086       .  S
C14          C15   1.366       .  D
C15          C16   1.532       .  S
C15        C4209   1.484       .  S
C16          C20   1.531       .  S
C16          C18   1.533       .  S
C16          H22   1.110       .  S
C17          H23   1.080       .  S
C17          C18   1.368       .  D
C18        C4237   1.487       .  S
C19          H24   1.086       .  S
C19          C20   1.365       .  D
C20        C4265   1.479       .  S
C25          C26   1.550   1_545  S
C25          C31   1.546       .  S
C25          C29   1.540   1_455  S
C25        C4181   1.540       .  S
C26          H33   1.080       .  S
C26          C27   1.359       .  D
C27          C28   1.525   1_455  S
C27        C4153   1.470       .  S
C28          C32   1.535   1_655  S
C28          C30   1.532       .  S
C28          H34   1.110       .  S
C29          H35   1.086       .  S
C29          C30   1.365   1_545  D
C30        C4125   1.482       .  S
C31          H36   1.085       .  S
C31          C32   1.371   1_545  D
C32        C4097   1.490       .  S
C37          C38   1.550       .  S
C37          C43   1.540       .  S
C37          C41   1.547       .  S
C37        C4013   1.543       .  S
C38          H45   1.080       .  S
C38          C39   1.365       .  D
C39          C40   1.529       .  S
C39        C4069   1.483       .  S
C40          C44   1.528       .  S
C40          C42   1.533       .  S
C40          H46   1.110       .  S
C41          H47   1.085       .  S
C41          C42   1.372       .  D
C42        C3985   1.489       .  S
C43          H48   1.086       .  S
C43          C44   1.364       .  D
C44        C4041   1.479       .  S
Zn49         O53   1.968       .  S
Zn49         O54   2.026       .  S
Zn49         O58   2.034       .  S
Zn49         O65   2.036       .  S
Zn50         O53   1.964       .  S
Zn50         O55   2.024       .  S
Zn50         O57   2.007       .  S
Zn50         O61   2.030       .  S
Zn51         O53   1.959       .  S
Zn51         O56   2.020       .  S
Zn51         O59   2.019       .  S
Zn51         O62   2.010       .  S
Zn52         O53   1.955       .  S
Zn52         O60   2.018       .  S
Zn52         O63   2.015       .  S
Zn52         O64   2.012       .  S
O54          C66   1.276       .  A
O55          C67   1.275       .  A
O56          C68   1.275       .  A
O57          C66   1.273       .  A
O58          C68   1.275       .  A
O59          C67   1.273       .  A
O60          C69   1.275       .  A
O61          C70   1.273       .  A
O62          C69   1.273       .  A
O63          C70   1.273       .  A
O64          C71   1.272       .  A
O65          C71   1.275       .  A
C66        C4082   1.485       .  S
C67        C3929   1.493       .  S
C68        C3957   1.492       .  S
C69        C3873   1.488       .  S
C70        C3901   1.497       .  S
C71        C3845   1.479       .  S
C72          C73   1.543       .  S
C72          C78   1.552       .  S
C72          C76   1.546       .  S
C72        C3830   1.547       .  S
C73          H80   1.086       .  S
C73          C74   1.365       .  D
C74          C75   1.532       .  S
C74        C3761   1.485       .  S
C75          C79   1.532       .  S
C75          C77   1.536       .  S
C75          H81   1.111       .  S
C76          H82   1.085       .  S
C76          C77   1.369       .  D
C77        C3789   1.491       .  S
C78          H83   1.081       .  S
C78          C79   1.369       .  D
C79        C3914   1.486       .  S
C84          C85   1.540       .  S
C84          C90   1.550   1_554  S
C84          C88   1.545       .  S
C84        C3733   1.543       .  S
C85          H92   1.086       .  S
C85          C86   1.364       .  D
C86          C87   1.530   1_554  S
C86        C3677   1.482       .  S
C87          C91   1.535       .  S
C87          C89   1.536   1_556  S
C87          H93   1.109       .  S
C88          H94   1.085       .  S
C88          C89   1.370       .  D
C89        C3705   1.493       .  S
C90          H95   1.083       .  S
C90          C91   1.367       .  D
C91        C3942   1.488       .  S
Zn96        O100   1.968       .  S
Zn96        O101   2.031       .  S
Zn96        O105   2.027       .  S
Zn96        O112   2.019       .  S
Zn97        O100   1.952   1_554  S
Zn97        O102   2.024       .  S
Zn97        O104   2.004       .  S
Zn97        O108   2.015       .  S
Zn98        O100   1.951       .  S
Zn98        O103   2.001       .  S
Zn98        O106   2.004       .  S
Zn98        O109   2.006       .  S
Zn99        O100   1.967   1_554  S
Zn99        O107   2.033       .  S
Zn99        O110   2.036       .  S
Zn99        O111   2.025       .  S
O101        C113   1.275       .  A
O102        C114   1.275   1_554  A
O103        C115   1.271       .  A
O104        C113   1.272   1_554  A
O105        C115   1.274       .  A
O106        C114   1.272       .  A
O107        C116   1.275   1_554  A
O108        C117   1.274       .  A
O109        C116   1.272       .  A
O110        C117   1.275       .  A
O111        C118   1.275   1_554  A
O112        C118   1.275       .  A
C113       C4390   1.484       .  S
C114       C3593   1.486       .  S
C115       C4278   1.485       .  S
C116       C3565   1.481       .  S
C117       C3649   1.479       .  S
C118       C3621   1.494       .  S
C119        C120   1.531       .  S
C119        C125   1.542       .  S
C119        C123   1.534       .  S
C119       C3453   1.533       .  S
C120        H127   1.087       .  S
C120        C121   1.363       .  D
C121        C122   1.541       .  S
C121       C3522   1.480       .  S
C122        C126   1.540       .  S
C122        C124   1.544       .  S
C122        H128   1.111       .  S
C123        H129   1.086       .  S
C123        C124   1.366       .  D
C124       C3481   1.487       .  S
C125        H130   1.081       .  S
C125        C126   1.365       .  D
C126       C3537   1.477       .  S
C131        C132   1.551   1_655  S
C131        C137   1.542       .  S
C131        C135   1.539       .  S
C131       C3509   1.535       .  S
C132        H139   1.080       .  S
C132        C133   1.367       .  D
C133        C134   1.533       .  S
C133       C3425   1.485       .  S
C134        C138   1.532   1_455  S
C134        C136   1.530   1_455  S
C134        H140   1.110       .  S
C135        H141   1.086       .  S
C135        C136   1.363       .  D
C136       C3410   1.476       .  S
C137        H142   1.086       .  S
C137        C138   1.365       .  D
C138       C3369   1.481       .  S
C143        C144   1.555   1_556  S
C143        C149   1.543       .  S
C143        C147   1.545       .  S
C143       C3494   1.544       .  S
C144        H151   1.080       .  S
C144        C145   1.367       .  D
C145        C146   1.530       .  S
C145       C3341   1.487       .  S
C146        C150   1.530   1_554  S
C146        C148   1.537   1_554  S
C146        H152   1.107       .  S
C147        H153   1.086       .  S
C147        C148   1.373       .  D
C148       C3313   1.499       .  S
C149        H154   1.086       .  S
C149        C150   1.360       .  D
C150       C3578   1.473       .  S
C155        C156   1.543       .  S
C155        C161   1.553       .  S
C155        C159   1.546   1_545  S
C155       C3285   1.544       .  S
C156        H163   1.086       .  S
C156        C157   1.366   1_545  D
C157        C158   1.532       .  S
C157       C3229   1.484       .  S
C158        C162   1.530   1_565  S
C158        C160   1.531       .  S
C158        H164   1.109       .  S
C159        H165   1.086       .  S
C159        C160   1.367       .  D
C160       C3257   1.486       .  S
C161        H166   1.080       .  S
C161        C162   1.367       .  D
C162       C3201   1.485       .  S
C167        C168   1.533       .  S
C167        C173   1.534       .  S
C167        C171   1.544       .  S
C167       C4026   1.542       .  S
C168        H175   1.086       .  S
C168        C169   1.368       .  D
C169        C170   1.548       .  S
C169       C3186   1.492       .  S
C170        C174   1.546       .  S
C170        C172   1.541       .  S
C170        H176   1.111       .  S
C171        H177   1.080       .  S
C171        C172   1.366       .  D
C172       C4194   1.486       .  S
C173        H178   1.086       .  S
C173        C174   1.366       .  D
C174       C3298   1.494       .  S
C179        C180   1.545   1_554  S
C179        C185   1.554   1_455  S
C179        C183   1.541       .  S
C179       C3145   1.548       .  S
C180        H187   1.085       .  S
C180        C181   1.368       .  D
C181        C182   1.533   1_455  S
C181       C3130   1.488       .  S
C182        C186   1.529       .  S
C182        C184   1.533   1_655  S
C182        H188   1.110       .  S
C183        H189   1.086       .  S
C183        C184   1.368   1_554  D
C184       C3102   1.486       .  S
C185        H190   1.081       .  S
C185        C186   1.366   1_554  D
C186       C3634   1.484       .  S
C191        C192   1.546       .  S
C191        C197   1.540   1_554  S
C191        C195   1.548       .  S
C191       C3033   1.545       .  S
C192        H199   1.084       .  S
C192        C193   1.370   1_554  D
C193        C194   1.537       .  S
C193       C3061   1.494       .  S
C194        C198   1.534       .  S
C194        C196   1.533       .  S
C194        H200   1.109       .  S
C195        H201   1.083       .  S
C195        C196   1.368   1_554  D
C196       C2977   1.485       .  S
C197        H202   1.086       .  S
C197        C198   1.363       .  D
C198       C3005   1.480       .  S
C203        C204   1.542       .  S
C203        C209   1.558       .  S
C203        C207   1.543       .  S
C203       C2949   1.544       .  S
C204        H211   1.086       .  S
C204        C205   1.365       .  D
C205        C206   1.528       .  S
C205       C2878   1.480       .  S
C206        C210   1.528       .  S
C206        C208   1.529       .  S
C206        H212   1.108       .  S
C207        H213   1.086       .  S
C207        C208   1.366       .  D
C208       C2893   1.484       .  S
C209        H214   1.080       .  S
C209        C210   1.371       .  D
C210       C2921   1.489       .  S
C215        C216   1.535       .  S
C215        C221   1.536       .  S
C215        C219   1.542       .  S
C215       C3158   1.548       .  S
C216        H223   1.086       .  S
C216        C217   1.366       .  D
C217        C218   1.548       .  S
C217       C2962   1.486       .  S
C218        C222   1.545       .  S
C218        C220   1.548       .  S
C218        H224   1.110       .  S
C219        H225   1.081       .  S
C219        C220   1.369       .  D
C220       C3046   1.500       .  S
C221        H226   1.086       .  S
C221        C222   1.368       .  D
C222       C2850   1.494       .  S
C227        C228   1.556       .  S
C227        C233   1.544       .  S
C227        C231   1.543       .  S
C227       C2753   1.547       .  S
C228        H235   1.080       .  S
C228        C229   1.369       .  D
C229        C230   1.531       .  S
C229       C2725   1.489       .  S
C230        C234   1.531       .  S
C230        C232   1.532       .  S
C230        H236   1.110       .  S
C231        H237   1.086       .  S
C231        C232   1.366       .  D
C232       C2822   1.485       .  S
C233        H238   1.086       .  S
C233        C234   1.366       .  D
C234       C2781   1.483       .  S
Zn239       O243   1.963       .  S
Zn239       O244   2.026       .  S
Zn239       O248   2.032       .  S
Zn239       O255   2.014       .  S
Zn240       O243   1.956       .  S
Zn240       O245   2.018       .  S
Zn240       O247   2.012       .  S
Zn240       O251   2.009       .  S
Zn241       O243   1.956       .  S
Zn241       O246   2.017       .  S
Zn241       O249   2.025       .  S
Zn241       O252   1.995       .  S
Zn242       O243   1.979       .  S
Zn242       O250   2.047       .  S
Zn242       O253   2.051       .  S
Zn242       O254   2.039       .  S
O244        C256   1.275       .  A
O245        C257   1.273       .  A
O246        C258   1.273       .  A
O247        C256   1.273       .  A
O248        C258   1.275       .  A
O249        C257   1.275       .  A
O250        C259   1.277       .  A
O251        C260   1.273       .  A
O252        C259   1.272       .  A
O253        C260   1.278       .  A
O254        C261   1.276       .  A
O255        C261   1.273       .  A
C256       C2906   1.482       .  S
C257       C2809   1.493       .  S
C258       C3270   1.485       .  S
C259       C2669   1.493       .  S
C260       C2641   1.493       .  S
C261       C2697   1.485       .  S
Zn262       O266   1.975       .  S
Zn262       O267   2.036       .  S
Zn262       O271   2.055       .  S
Zn262       O278   2.050       .  S
Zn263       O266   1.961       .  S
Zn263       O268   2.020       .  S
Zn263       O270   2.004       .  S
Zn263       O274   2.025       .  S
Zn264       O266   1.954       .  S
Zn264       O269   1.999       .  S
Zn264       O272   2.014       .  S
Zn264       O275   2.008       .  S
Zn265       O266   1.956       .  S
Zn265       O273   2.016       .  S
Zn265       O276   2.011       .  S
Zn265       O277   2.009       .  S
O267        C279   1.276       .  A
O268        C280   1.273       .  A
O269        C281   1.270       .  A
O270        C279   1.274       .  A
O271        C281   1.279       .  A
O272        C280   1.273       .  A
O273        C282   1.273       .  A
O274        C283   1.274       .  A
O275        C282   1.273       .  A
O276        C283   1.273       .  A
O277        C284   1.272       .  A
O278        C284   1.278       .  A
C279       C4054   1.491       .  S
C280       C3438   1.480       .  S
C281       C3018   1.499       .  S
C282       C2613   1.484       .  S
C283       C2585   1.485       .  S
C284       C3774   1.499       .  S
Zn285       O289   1.957   1_655  S
Zn285       O290   2.023       .  S
Zn285       O294   2.018       .  S
Zn285       O301   2.005       .  S
Zn286       O289   1.946       .  S
Zn286       O291   2.001       .  S
Zn286       O293   1.999       .  S
Zn286       O297   1.978       .  S
Zn287       O289   1.958   1_655  S
Zn287       O292   2.021       .  S
Zn287       O295   2.029       .  S
Zn287       O298   2.012       .  S
Zn288       O289   1.981       .  S
Zn288       O296   2.041       .  S
Zn288       O299   2.062       .  S
Zn288       O300   2.045       .  S
O290        C302   1.273   1_655  A
O291        C303   1.271       .  A
O292        C304   1.273       .  A
O293        C302   1.270       .  A
O294        C304   1.273       .  A
O295        C303   1.275   1_655  A
O296        C305   1.278       .  A
O297        C306   1.269       .  A
O298        C305   1.274   1_655  A
O299        C306   1.278       .  A
O300        C307   1.278       .  A
O301        C307   1.273   1_655  A
C302       C4166   1.474       .  S
C303       C3117   1.476       .  S
C304       C4250   1.486       .  S
C305       C3397   1.495       .  S
C306       C2570   1.482       .  S
C307       C2542   1.492       .  S
C308        C309   1.546       .  S
C308        C314   1.552       .  S
C308        C312   1.551       .  S
C308       C2514   1.546       .  S
C309        H316   1.086       .  S
C309        C310   1.363       .  D
C310        C311   1.524       .  S
C310       C2682   1.472       .  S
C311        C315   1.526       .  S
C311        C313   1.531       .  S
C311        H317   1.111       .  S
C312        H318   1.085       .  S
C312        C313   1.372       .  D
C313       C2557   1.487       .  S
C314        H319   1.080       .  S
C314        C315   1.363       .  D
C315       C2626   1.480       .  S
Zn320       O324   1.959       .  S
Zn320       O325   2.024       .  S
Zn320       O329   2.010       .  S
Zn320       O336   2.027       .  S
Zn321       O324   1.952       .  S
Zn321       O326   2.002       .  S
Zn321       O328   2.001       .  S
Zn321       O332   2.009       .  S
Zn322       O324   1.970       .  S
Zn322       O327   2.025       .  S
Zn322       O330   2.038       .  S
Zn322       O333   2.038       .  S
Zn323       O324   1.950       .  S
Zn323       O331   2.002       .  S
Zn323       O334   2.009       .  S
Zn323       O335   2.025       .  S
O325        C337   1.274       .  A
O326        C338   1.272       .  A
O327        C339   1.275       .  A
O328        C337   1.272       .  A
O329        C339   1.274       .  A
O330        C338   1.275       .  A
O331        C340   1.272       .  A
O332        C341   1.271       .  A
O333        C340   1.277       .  A
O334        C341   1.273       .  A
O335        C342   1.275       .  A
O336        C342   1.275       .  A
C337       C2473   1.480       .  S
C338       C2445   1.481       .  S
C339       C2389   1.492       .  S
C340       C2417   1.492       .  S
C341       C2865   1.474       .  S
C342       C2794   1.491       .  S
C343        C344   1.532       .  S
C343        C349   1.531       .  S
C343        C347   1.543       .  S
C343       C2305   1.538       .  S
C344        H351   1.085       .  S
C344        C345   1.370       .  D
C345        C346   1.551       .  S
C345       C2333   1.505       .  S
C346        C350   1.549       .  S
C346        C348   1.541       .  S
C346        H352   1.108       .  S
C347        H353   1.081       .  S
C347        C348   1.364       .  D
C348       C2361   1.484       .  S
C349        H354   1.086       .  S
C349        C350   1.366       .  D
C350       C2501   1.489       .  S
C355        C356   1.552       .  S
C355        C361   1.546       .  S
C355        C359   1.535       .  S
C355       C2374   1.542       .  S
C356        H363   1.080       .  S
C356        C357   1.370       .  D
C357        C358   1.538       .  S
C357       C2249   1.498       .  S
C358        C362   1.536   1_565  S
C358        C360   1.537       .  S
C358        H364   1.109   1_565  S
C359        H365   1.087       .  S
C359        C360   1.358       .  D
C360       C2290   1.473       .  S
C361        H366   1.086   1_565  S
C361        C362   1.370   1_565  D
C362       C3970   1.489       .  S
C367        C368   1.546       .  S
C367        C373   1.543   1_556  S
C367        C371   1.552       .  S
C367       C2346   1.541       .  S
C368        H375   1.085       .  S
C368        C369   1.363       .  D
C369        C370   1.529   1_556  S
C369       C3606   1.478       .  S
C370        C374   1.529       .  S
C370        C372   1.531   1_554  S
C370        H376   1.111       .  S
C371        H377   1.084       .  S
C371        C372   1.367       .  D
C372       C2221   1.483       .  S
C373        H378   1.086       .  S
C373        C374   1.366       .  D
C374       C2458   1.482       .  S
C379        C380   1.541       .  S
C379        C385   1.557       .  S
C379        C383   1.544       .  S
C379       C2178   1.545       .  S
C380        H387   1.086       .  S
C380        C381   1.365       .  D
C381        C382   1.532       .  S
C381       C2137   1.484       .  S
C382        C386   1.531       .  S
C382        C384   1.530       .  S
C382        H388   1.111       .  S
C383        H389   1.086       .  S
C383        C384   1.366       .  D
C384       C2193   1.484       .  S
C385        H390   1.081       .  S
C385        C386   1.372       .  D
C386       C2109   1.490       .  S
Zn391       O395   1.949       .  S
Zn391       O396   2.005       .  S
Zn391       O400   1.990       .  S
Zn391       O407   2.009       .  S
Zn392       O395   1.958       .  S
Zn392       O397   1.994       .  S
Zn392       O399   2.030       .  S
Zn392       O403   2.019       .  S
Zn393       O395   1.975       .  S
Zn393       O398   2.052       .  S
Zn393       O401   2.039       .  S
Zn393       O404   2.044       .  S
Zn394       O395   1.953       .  S
Zn394       O402   2.004       .  S
Zn394       O405   2.008       .  S
Zn394       O406   2.017       .  S
O396        C408   1.271       .  A
O397        C409   1.271       .  A
O398        C410   1.278       .  A
O399        C408   1.275       .  A
O400        C410   1.270       .  A
O401        C409   1.278       .  A
O402        C411   1.272       .  A
O403        C412   1.273       .  A
O404        C411   1.276       .  A
O405        C412   1.273       .  A
O406        C413   1.274       .  A
O407        C413   1.273       .  A
C408       C2081   1.485       .  S
C409       C1997   1.493       .  S
C410       C3354   1.481       .  S
C411       C2025   1.493       .  S
C412       C2150   1.491       .  S
C413       C2053   1.487       .  S
C414        C415   1.538       .  S
C414        C420   1.548       .  S
C414        C418   1.553       .  S
C414       C1941   1.542       .  S
C415        H422   1.086       .  S
C415        C416   1.360       .  D
C416        C417   1.528       .  S
C416       C1969   1.474       .  S
C417        C421   1.531       .  S
C417        C419   1.532       .  S
C417        H423   1.111       .  S
C418        H424   1.081       .  S
C418        C419   1.369       .  D
C419       C2066   1.482       .  S
C420        H425   1.086       .  S
C420        C421   1.368       .  D
C421       C1926   1.487       .  S
Zn426       O430   1.947   1_545  S
Zn426       O431   2.018       .  S
Zn426       O435   2.003       .  S
Zn426       O442   2.014       .  S
Zn427       O430   1.950       .  S
Zn427       O432   2.012       .  S
Zn427       O434   2.015       .  S
Zn427       O438   2.011       .  S
Zn428       O430   1.956       .  S
Zn428       O433   2.009       .  S
Zn428       O436   2.019       .  S
Zn428       O439   2.010       .  S
Zn429       O430   1.954   1_545  S
Zn429       O437   2.001       .  S
Zn429       O440   2.003       .  S
Zn429       O441   2.015       .  S
O431        C443   1.274   1_545  A
O432        C444   1.273       .  A
O433        C445   1.273       .  A
O434        C443   1.274       .  A
O435        C445   1.272   1_545  A
O436        C444   1.273       .  A
O437        C446   1.272   1_545  A
O438        C447   1.273       .  A
O439        C446   1.273       .  A
O440        C447   1.273   1_545  A
O441        C448   1.272       .  A
O442        C448   1.273       .  A
C443       C1857   1.480       .  S
C444       C4222   1.493       .  S
C445       C4138   1.481       .  S
C446       C4362   1.484       .  S
C447       C2277   1.478       .  S
C448       C1885   1.478       .  S
C449        C450   1.542       .  S
C449        C455   1.539       .  S
C449        C453   1.552       .  S
C449       C3550   1.540       .  S
C450        H457   1.086       .  S
C450        C451   1.365       .  D
C451        C452   1.538       .  S
C451       C1898   1.483       .  S
C452        C456   1.531       .  S
C452        C454   1.536       .  S
C452        H458   1.109       .  S
C453        H459   1.081       .  S
C453        C454   1.369       .  D
C454       C1829   1.497       .  S
C455        H460   1.086       .  S
C455        C456   1.363       .  D
C456       C3886   1.483       .  S
Zn461       O465   1.970       .  S
Zn461       O466   2.027       .  S
Zn461       O470   2.020       .  S
Zn461       O477   2.041       .  S
Zn462       O465   1.966       .  S
Zn462       O467   2.033       .  S
Zn462       O469   2.027       .  S
Zn462       O473   2.032       .  S
Zn463       O465   1.961       .  S
Zn463       O468   2.010       .  S
Zn463       O471   2.021       .  S
Zn463       O474   2.026       .  S
Zn464       O465   1.950       .  S
Zn464       O472   2.015       .  S
Zn464       O475   2.001       .  S
Zn464       O476   1.994       .  S
O466        C478   1.275       .  A
O467        C479   1.275       .  A
O468        C480   1.274       .  A
O469        C478   1.275       .  A
O470        C480   1.274       .  A
O471        C479   1.274       .  A
O472        C481   1.273       .  A
O473        C482   1.276       .  A
O474        C481   1.274       .  A
O475        C482   1.271       .  A
O476        C483   1.270       .  A
O477        C483   1.275       .  A
C478       C2206   1.486       .  S
C479       C1745   1.487       .  S
C480       C1982   1.486       .  S
C481       C1773   1.480       .  S
C482       C1842   1.493       .  S
C483       C1801   1.483       .  S
C484        C485   1.541       .  S
C484        C490   1.528       .  S
C484        C488   1.536       .  S
C484       C1646   1.538       .  S
C485        H492   1.086       .  S
C485        C486   1.365       .  D
C486        C487   1.541       .  S
C486       C1717   1.481       .  S
C487        C491   1.557       .  S
C487        C489   1.551       .  S
C487        H493   1.110       .  S
C488        H494   1.081       .  S
C488        C489   1.365       .  D
C489       C1689   1.497       .  S
C490        H495   1.086       .  S
C490        C491   1.367       .  D
C491       C1661   1.501       .  S
C496        C497   1.549   1_565  S
C496        C502   1.549       .  S
C496        C500   1.537       .  S
C496       C1702   1.543       .  S
C497        H504   1.085       .  S
C497        C498   1.368       .  D
C498        C499   1.533       .  S
C498       C1786   1.488       .  S
C499        C503   1.531   1_545  S
C499        C501   1.534   1_545  S
C499        H505   1.110       .  S
C500        H506   1.086       .  S
C500        C501   1.365       .  D
C501       C1870   1.486       .  S
C502        H507   1.083       .  S
C502        C503   1.366       .  D
C503       C1605   1.482       .  S
C508        C509   1.553       .  S
C508        C514   1.546   1_655  S
C508        C512   1.546       .  S
C508       C1674   1.547       .  S
C509        H516   1.080       .  S
C509        C510   1.368   1_655  D
C510        C511   1.533       .  S
C510       C1577   1.491       .  S
C511        C515   1.533       .  S
C511        C513   1.528   1_455  S
C511        H517   1.111       .  S
C512        H518   1.086       .  S
C512        C513   1.363       .  D
C513       C2529   1.475       .  S
C514        H519   1.086       .  S
C514        C515   1.369       .  D
C515       C2710   1.487       .  S
C520        C521   1.543       .  S
C520        C526   1.557       .  S
C520        C524   1.543       .  S
C520       C1730   1.543       .  S
C521        H528   1.086       .  S
C521        C522   1.366       .  D
C522        C523   1.530       .  S
C522       C2402   1.478       .  S
C523        C527   1.531       .  S
C523        C525   1.528       .  S
C523        H529   1.110       .  S
C524        H530   1.086       .  S
C524        C525   1.364       .  D
C525       C2010   1.478       .  S
C526        H531   1.080       .  S
C526        C527   1.369       .  D
C527       C3662   1.490       .  S
C532        C533   1.541       .  S
C532        C538   1.555       .  S
C532        C536   1.543       .  S
C532       C1549   1.546       .  S
C533        H540   1.086       .  S
C533        C534   1.364       .  D
C534        C535   1.533       .  S
C534       C2654   1.480       .  S
C535        C539   1.532       .  S
C535        C537   1.536       .  S
C535        H541   1.111       .  S
C536        H542   1.086       .  S
C536        C537   1.368       .  D
C537       C2598   1.487       .  S
C538        H543   1.080       .  S
C538        C539   1.369       .  D
C539       C1534   1.489       .  S
Zn544       O548   1.958   1_554  S
Zn544       O549   2.031       .  S
Zn544       O553   2.002       .  S
Zn544       O560   2.007       .  S
Zn545       O548   1.949   1_554  S
Zn545       O550   1.997       .  S
Zn545       O552   2.009       .  S
Zn545       O556   2.006       .  S
Zn546       O548   1.973       .  S
Zn546       O551   2.024       .  S
Zn546       O554   2.043       .  S
Zn546       O557   2.036       .  S
Zn547       O548   1.963       .  S
Zn547       O555   2.019       .  S
Zn547       O558   2.024       .  S
Zn547       O559   2.029       .  S
O549        C561   1.274       .  A
O550        C562   1.271   1_554  A
O551        C563   1.275       .  A
O552        C561   1.272       .  A
O553        C563   1.273   1_554  A
O554        C562   1.277       .  A
O555        C564   1.274       .  A
O556        C565   1.273   1_554  A
O557        C564   1.276       .  A
O558        C565   1.275       .  A
O559        C566   1.275       .  A
O560        C566   1.272   1_554  A
C561       C1493   1.481       .  S
C562       C3690   1.492       .  S
C563       C2990   1.484       .  S
C564       C3802   1.492       .  S
C565       C3326   1.481       .  S
C566       C2234   1.488       .  S
C567        C568   1.541       .  S
C567        C573   1.555       .  S
C567        C571   1.548       .  S
C567       C1465   1.550       .  S
C568        H575   1.086       .  S
C568        C569   1.367       .  D
C569        C570   1.531       .  S
C569       C2430   1.485       .  S
C570        C574   1.531       .  S
C570        C572   1.531       .  S
C570        H576   1.110       .  S
C571        H577   1.086       .  S
C571        C572   1.369       .  D
C572       C1506   1.484       .  S
C573        H578   1.080       .  S
C573        C574   1.368       .  D
C574       C2038   1.490       .  S
C579        C580   1.544       .  S
C579        C585   1.531       .  S
C579        C583   1.534       .  S
C579       C1437   1.539       .  S
C580        H587   1.081       .  S
C580        C581   1.365       .  D
C581        C582   1.549       .  S
C581       C1478   1.489       .  S
C582        C586   1.549       .  S
C582        C584   1.552       .  S
C582        H588   1.110       .  S
C583        H589   1.086       .  S
C583        C584   1.366       .  D
C584       C1409   1.499       .  S
C585        H590   1.087       .  S
C585        C586   1.365       .  D
C586       C1562   1.491       .  S
C591        C592   1.556       .  S
C591        C597   1.545       .  S
C591        C595   1.546       .  S
C591       C1422   1.553       .  S
C592        H599   1.080       .  S
C592        C593   1.368       .  D
C593        C594   1.530       .  S
C593       C1394   1.488       .  S
C594        C598   1.533       .  S
C594        C596   1.532       .  S
C594        H600   1.108       .  S
C595        H601   1.086       .  S
C595        C596   1.369       .  D
C596       C3858   1.488       .  S
C597        H602   1.086       .  S
C597        C598   1.367       .  D
C598       C1758   1.490       .  S
Zn603       O607   1.959       .  S
Zn603       O608   2.013       .  S
Zn603       O612   2.012       .  S
Zn603       O619   2.026       .  S
Zn604       O607   1.961   1_545  S
Zn604       O609   2.019       .  S
Zn604       O611   2.008       .  S
Zn604       O615   2.033       .  S
Zn605       O607   1.969   1_545  S
Zn605       O610   2.033       .  S
Zn605       O613   2.026       .  S
Zn605       O616   2.040       .  S
Zn606       O607   1.949       .  S
Zn606       O614   1.999       .  S
Zn606       O617   2.004       .  S
Zn606       O618   2.019       .  S
O608        C620   1.272       .  A
O609        C621   1.274       .  A
O610        C622   1.277   1_545  A
O611        C620   1.273   1_545  A
O612        C622   1.273       .  A
O613        C621   1.275       .  A
O614        C623   1.272       .  A
O615        C624   1.275   1_545  A
O616        C623   1.277   1_545  A
O617        C624   1.272       .  A
O618        C625   1.273       .  A
O619        C625   1.275       .  A
C620       C3214   1.476       .  S
C621       C1381   1.489       .  S
C622       C2262   1.496       .  S
C623       C1618   1.492       .  S
C624       C1353   1.482       .  S
C625       C2738   1.496       .  S
C626        C627   1.548   1_545  S
C626        C632   1.541       .  S
C626        C630   1.551       .  S
C626       C1297   1.543       .  S
C627        H634   1.085       .  S
C627        C628   1.367       .  D
C628        C629   1.531       .  S
C628       C2486   1.483       .  S
C629        C633   1.529       .  S
C629        C631   1.528       .  S
C629        H635   1.108       .  S
C630        H636   1.083       .  S
C630        C631   1.366   1_545  D
C631       C1325   1.481   1_565  S
C632        H637   1.086       .  S
C632        C633   1.367   1_545  D
C633       C1366   1.487       .  S
C638        C639   1.544       .  S
C638        C644   1.552       .  S
C638        C642   1.549       .  S
C638       C2837   1.546       .  S
C639        H646   1.086       .  S
C639        C640   1.368       .  D
C640        C641   1.531       .  S
C640       C1241   1.485       .  S
C641        C645   1.527   1_455  S
C641        C643   1.529       .  S
C641        H647   1.111   1_455  S
C642        H648   1.085       .  S
C642        C643   1.368       .  D
C643       C1269   1.481       .  S
C644        H649   1.082   1_455  S
C644        C645   1.363   1_455  D
C645       C2094   1.480       .  S
Zn650       O654   1.964       .  S
Zn650       O655   2.016       .  S
Zn650       O659   2.029       .  S
Zn650       O666   2.027       .  S
Zn651       O654   1.959   1_655  S
Zn651       O656   2.026       .  S
Zn651       O658   2.008       .  S
Zn651       O662   2.025       .  S
Zn652       O654   1.953   1_655  S
Zn652       O657   2.020       .  S
Zn652       O660   2.017       .  S
Zn652       O663   2.008       .  S
Zn653       O654   1.958       .  S
Zn653       O661   2.018       .  S
Zn653       O664   2.015       .  S
Zn653       O665   2.005       .  S
O655        C667   1.274       .  A
O656        C668   1.275       .  A
O657        C669   1.274   1_655  A
O658        C667   1.273   1_655  A
O659        C669   1.274       .  A
O660        C668   1.274       .  A
O661        C670   1.275       .  A
O662        C671   1.275   1_655  A
O663        C670   1.273   1_655  A
O664        C671   1.272       .  A
O665        C672   1.273       .  A
O666        C672   1.274       .  A
C667       C3382   1.482       .  S
C668       C2122   1.491       .  S
C669       C1590   1.496       .  S
C670       C1254   1.489       .  S
C671       C1213   1.494       .  S
C672       C1521   1.492       .  S
C673        C674   1.545       .  S
C673        C679   1.544       .  S
C673        C677   1.555   1_455  S
C673       C3173   1.545       .  S
C674        H681   1.086       .  S
C674        C675   1.368       .  D
C675        C676   1.533   1_455  S
C675       C1226   1.488       .  S
C676        C680   1.529   1_655  S
C676        C678   1.527       .  S
C676        H682   1.111       .  S
C677        H683   1.080       .  S
C677        C678   1.365       .  D
C678       C1814   1.483       .  S
C679        H684   1.086       .  S
C679        C680   1.367       .  D
C680       C1198   1.479       .  S
C685        C686   1.547       .  S
C685        C691   1.540   1_556  S
C685        C689   1.545   1_565  S
C685       C2318   1.539       .  S
C686        H693   1.080       .  S
C686        C687   1.362       .  D
C687        C688   1.534   1_566  S
C687       C1129   1.480       .  S
C688        C692   1.538   1_545  S
C688        C690   1.531   1_554  S
C688        H694   1.110       .  S
C689        H695   1.085       .  S
C689        C690   1.367       .  D
C690       C1114   1.482       .  S
C691        H696   1.085       .  S
C691        C692   1.368       .  D
C692       C1157   1.493       .  S
Zn697       O701   1.960   1_655  S
Zn697       O702   2.031       .  S
Zn697       O706   2.026       .  S
Zn697       O713   2.022       .  S
Zn698       O701   1.948   1_554  S
Zn698       O703   2.005       .  S
Zn698       O705   2.003       .  S
Zn698       O709   2.012       .  S
Zn699       O701   1.952   1_545  S
Zn699       O704   2.001       .  S
Zn699       O707   2.008       .  S
Zn699       O710   2.000       .  S
Zn700       O701   1.951   1_644  S
Zn700       O708   1.998       .  S
Zn700       O711   1.997       .  S
Zn700       O712   2.001       .  S
O702        C714   1.276   1_655  A
O703        C715   1.272   1_554  A
O704        C716   1.272   1_545  A
O705        C714   1.272   1_554  A
O706        C716   1.275   1_655  A
O707        C715   1.272   1_545  A
O708        C717   1.270   1_654  A
O709        C718   1.273       .  A
O710        C717   1.272       .  A
O711        C718   1.270   1_645  A
O712        C719   1.272   1_544  A
O713        C719   1.274       .  A
C714       C3089   1.490       .  S
C715       C1142   1.482       .  S
C716       C4110   1.488       .  S
C717       C1045   1.484       .  S
C718       C1073   1.487       .  S
C719       C4334   1.475       .  S
C720        C721   1.543   1_565  S
C720        C726   1.548   1_655  S
C720        C724   1.540       .  S
C720       C1633   1.538       .  S
C721        H728   1.086       .  S
C721        C722   1.368   1_655  D
C722        C723   1.534       .  S
C722        C989   1.484       .  S
C723        C727   1.528   1_545  S
C723        C725   1.533   1_545  S
C723        H729   1.109       .  S
C724        H730   1.086       .  S
C724        C725   1.367   1_655  D
C725       C1086   1.482   1_455  S
C726        H731   1.079       .  S
C726        C727   1.361       .  D
C727       C1030   1.480       .  S
C732        C733   1.545   1_456  S
C732        C738   1.537       .  S
C732        C736   1.547       .  S
C732       C3466   1.534   1_455  S
C733        H740   1.086       .  S
C733        C734   1.372   1_655  D
C734        C735   1.538       .  S
C734        C946   1.496       .  S
C735        C739   1.532   1_554  S
C735        C737   1.530   1_554  S
C735        H741   1.105       .  S
C736        H742   1.081       .  S
C736        C737   1.359       .  D
C737        C961   1.467       .  S
C738        H743   1.086   1_455  S
C738        C739   1.363       .  D
C739       C1058   1.482       .  S
Zn744       O748   1.970   1_554  S
Zn744       O749   2.032       .  S
Zn744       O753   2.025       .  S
Zn744       O760   2.022       .  S
Zn745       O748   1.964   1_554  S
Zn745       O750   2.019       .  S
Zn745       O752   2.029       .  S
Zn745       O756   2.023       .  S
Zn746       O748   1.960       .  S
Zn746       O751   2.022       .  S
Zn746       O754   2.014       .  S
Zn746       O757   2.043       .  S
Zn747       O748   1.955       .  S
Zn747       O755   2.016       .  S
Zn747       O758   2.012       .  S
Zn747       O759   1.991       .  S
O749        C761   1.275       .  A
O750        C762   1.274   1_554  A
O751        C763   1.276   1_556  A
O752        C761   1.274       .  A
O753        C763   1.274       .  A
O754        C762   1.274       .  A
O755        C764   1.272       .  A
O756        C765   1.275   1_554  A
O757        C764   1.275       .  A
O758        C765   1.273       .  A
O759        C766   1.271       .  A
O760        C766   1.274   1_554  A
C761        C905   1.487       .  S
C762       C3718   1.480       .  S
C763       C1101   1.496       .  S
C764       C3998   1.480       .  S
C765       C3074   1.489       .  S
C766        C974   1.476       .  S
Zn767       O771   1.958   1_545  S
Zn767       O772   2.020       .  S
Zn767       O776   2.017       .  S
Zn767       O783   1.997       .  S
Zn768       O771   1.946   1_545  S
Zn768       O773   2.001       .  S
Zn768       O775   2.017       .  S
Zn768       O779   2.004       .  S
Zn769       O771   1.955       .  S
Zn769       O774   2.008       .  S
Zn769       O777   2.016       .  S
Zn769       O780   1.998       .  S
Zn770       O771   1.971       .  S
Zn770       O778   2.038       .  S
Zn770       O781   2.041       .  S
Zn770       O782   2.026       .  S
O772        C784   1.273       .  A
O773        C785   1.272   1_545  A
O774        C786   1.272       .  A
O775        C784   1.272       .  A
O776        C786   1.273   1_545  A
O777        C785   1.274       .  A
O778        C787   1.276       .  A
O779        C788   1.272   1_545  A
O780        C787   1.272       .  A
O781        C788   1.277       .  A
O782        C789   1.275       .  A
O783        C789   1.273   1_545  A
C784        C877   1.485       .  S
C785       C1017   1.485       .  S
C786       C1170   1.479       .  S
C787       C2934   1.483       .  S
C788       C3242   1.492       .  S
C789       C1338   1.487       .  S
Zn790       O794   1.972   1_655  S
Zn790       O795   2.034       .  S
Zn790       O799   2.040       .  S
Zn790       O806   2.042       .  S
Zn791       O794   1.956   1_655  S
Zn791       O796   2.014       .  S
Zn791       O798   2.010       .  S
Zn791       O802   2.017       .  S
Zn792       O794   1.955       .  S
Zn792       O797   1.996       .  S
Zn792       O800   2.017       .  S
Zn792       O803   2.012       .  S
Zn793       O794   1.951       .  S
Zn793       O801   2.015       .  S
Zn793       O804   2.014       .  S
Zn793       O805   1.999       .  S
O795        C807   1.276       .  A
O796        C808   1.273   1_655  A
O797        C809   1.271       .  A
O798        C807   1.274       .  A
O799        C809   1.276   1_655  A
O800        C808   1.273       .  A
O801        C810   1.273       .  A
O802        C811   1.273   1_655  A
O803        C810   1.272       .  A
O804        C811   1.274       .  A
O805        C812   1.271       .  A
O806        C812   1.276   1_655  A
C807       C1913   1.483       .  S
C808        C933   1.481       .  S
C809       C1282   1.479       .  S
C810        C849   1.477       .  S
C811       C1002   1.490       .  S
C812       C1185   1.481       .  S
C813        C814   1.541       .  S
C813        C819   1.550       .  S
C813        C817   1.541       .  S
C813       C1450   1.539       .  S
C814        H821   1.086       .  S
C814        C815   1.365       .  D
C815        C816   1.534       .  S
C815        C918   1.486       .  S
C816        C820   1.533       .  S
C816        C818   1.540       .  S
C816        H822   1.110       .  S
C817        H823   1.085       .  S
C817        C818   1.368       .  D
C818        C862   1.493       .  S
C819        H824   1.081       .  S
C819        C820   1.364       .  D
C820        C890   1.479       .  S
C825        C826   1.544       .  S
C825        C831   1.537       .  S
C825        C829   1.534       .  S
C825       C4418   1.542       .  S
C826        H833   1.081       .  S
C826        C827   1.361       .  D
C827        C828   1.539       .  S
C827       C1310   1.481       .  S
C828        C832   1.549       .  S
C828        C830   1.543       .  S
C828        H834   1.110       .  S
C829        H835   1.086       .  S
C829        C830   1.367       .  D
C830       C3746   1.495       .  S
C831        H836   1.086       .  S
C831        C832   1.371       .  D
C832       C1954   1.495       .  S
C837        C838   1.532       .  S
C837        C843   1.538       .  S
C837        C841   1.545       .  S
C837       C4306   1.543       .  S
C838        H845   1.087       .  S
C838        C839   1.365       .  D
C839        C840   1.547       .  S
C839       C2766   1.489       .  S
C840        C844   1.549       .  S
C840        C842   1.545       .  S
C840        H846   1.111       .  S
C841        H847   1.081       .  S
C841        C842   1.365       .  D
C842       C3817   1.489       .  S
C843        H848   1.086       .  S
C843        C844   1.368       .  D
C844       C2165   1.495       .  S
C849        C850   1.410       .  A
C849        C854   1.405       .  A
C850        C851   1.401       .  A
C850        N855   1.432       .  S
C851        C852   1.400       .  A
C851        H856   1.084       .  S
C852        C857   1.475       .  S
C852        C853   1.408       .  A
C853        C854   1.406       .  A
C853        N858   1.438       .  S
C854        H859   1.084       .  S
N855        H875   1.046       .  S
N855        H876   1.046       .  S
C857        C860   1.400       .  A
C857        C864   1.405       .  A
N858        H873   1.046       .  S
N858        H874   1.045       .  S
C860        C861   1.408       .  A
C860        H865   1.084       .  S
C861        C862   1.418       .  A
C861        N866   1.437       .  S
C862        C863   1.405       .  A
C863        C864   1.401       .  A
C863        H867   1.078       .  S
C864        N868   1.438       .  S
N866        H869   1.046       .  S
N866        H870   1.046       .  S
N868        H871   1.046       .  S
N868        H872   1.046       .  S
C877        C878   1.416       .  A
C877        C882   1.406       .  A
C878        C879   1.406       .  A
C878        N883   1.438       .  S
C879        C880   1.402       .  A
C879        H884   1.084       .  S
C880        C885   1.485       .  S
C880        C881   1.410       .  A
C881        C882   1.406       .  A
C881        N886   1.438       .  S
C882        H887   1.084       .  S
N883        H903   1.045       .  S
N883        H904   1.046       .  S
C885        C888   1.405       .  A
C885        C892   1.411       .  A
N886        H901   1.046       .  S
N886        H902   1.046       .  S
C888        C889   1.407       .  A
C888        H893   1.084       .  S
C889        C890   1.409       .  A
C889        N894   1.438       .  S
C890        C891   1.400       .  A
C891        C892   1.405       .  A
C891        H895   1.081       .  S
C892        N896   1.438       .  S
N894        H897   1.046       .  S
N894        H898   1.045       .  S
N896        H899   1.046       .  S
N896        H900   1.046       .  S
C905        C906   1.416       .  A
C905        C910   1.406       .  A
C906        C907   1.409       .  A
C906        N911   1.438       .  S
C907        C908   1.401       .  A
C907        H912   1.084       .  S
C908        C913   1.482       .  S
C908        C909   1.408       .  A
C909        C910   1.407       .  A
C909        N914   1.438       .  S
C910        H915   1.084       .  S
N911        H931   1.045       .  S
N911        H932   1.046       .  S
C913        C916   1.402       .  A
C913        C920   1.410       .  A
N914        H929   1.046       .  S
N914        H930   1.045       .  S
C916        C917   1.405       .  A
C916        H921   1.084       .  S
C917        C918   1.410       .  A
C917        N922   1.432       .  S
C918        C919   1.404       .  A
C919        C920   1.407       .  A
C919        H923   1.084       .  S
C920        N924   1.438       .  S
N922        H925   1.046       .  S
N922        H926   1.045       .  S
N924        H927   1.046       .  S
N924        H928   1.045       .  S
C933        C934   1.414       .  A
C933        C938   1.406       .  A
C934        C935   1.406       .  A
C934        N939   1.438       .  S
C935        C936   1.400       .  A
C935        H940   1.084       .  S
C936        C941   1.477       .  S
C936        C937   1.407       .  A
C937        C938   1.405       .  A
C937        N942   1.438   1_455  S
C938        H943   1.084   1_455  S
N939        H959   1.046   1_455  S
N939        H960   1.046       .  S
C941        C944   1.396       .  A
C941        C948   1.408   1_455  A
N942        H957   1.046       .  S
N942        H958   1.045       .  S
C944        C945   1.400       .  A
C944        H949   1.084       .  S
C945        C946   1.416       .  A
C945        N950   1.430       .  S
C946        C947   1.409   1_455  A
C947        C948   1.409       .  A
C947        H951   1.083       .  S
C948        N952   1.438       .  S
N950        H953   1.046       .  S
N950        H954   1.046       .  S
N952        H955   1.046       .  S
N952        H956   1.045       .  S
C961        C962   1.406       .  A
C961        C966   1.398   1_556  A
C962        C963   1.403       .  A
C962        N967   1.437       .  S
C963        C964   1.403       .  A
C963        H968   1.084       .  S
C964        C969   1.475       .  S
C964        C965   1.410   1_556  A
C965        C966   1.402       .  A
C965        N970   1.438       .  S
C966        H971   1.083       .  S
N967        H987   1.045       .  S
N967        H988   1.046       .  S
C969        C972   1.399       .  A
C969        C976   1.409   1_556  A
N970        H985   1.046       .  S
N970        H986   1.045       .  S
C972        C973   1.401       .  A
C972        H977   1.084       .  S
C973        C974   1.414       .  A
C973        N978   1.438       .  S
C974        C975   1.404   1_556  A
C975        C976   1.405       .  A
C975        H979   1.084       .  S
C976        N980   1.438       .  S
N978        H981   1.046       .  S
N978        H982   1.046   1_556  S
N980        H983   1.046       .  S
N980        H984   1.046       .  S
C989        C990   1.413       .  A
C989        C994   1.404   1_455  A
C990        C991   1.404       .  A
C990        N995   1.438       .  S
C991        C992   1.401       .  A
C991        H996   1.084       .  S
C992        C997   1.482       .  S
C992        C993   1.410   1_455  A
C993        C994   1.406       .  A
C993        N998   1.438       .  S
C994        H999   1.084       .  S
N995       H1015   1.045       .  S
N995       H1016   1.045       .  S
C997       C1000   1.401   1_455  A
C997       C1004   1.408       .  A
N998       H1013   1.046       .  S
N998       H1014   1.046       .  S
C1000      C1001   1.406       .  A
C1000      H1005   1.084       .  S
C1001      C1002   1.418   1_655  A
C1001      N1006   1.438       .  S
C1002      C1003   1.408       .  A
C1003      C1004   1.404       .  A
C1003      H1007   1.083       .  S
C1004      N1008   1.438       .  S
N1006      H1009   1.046       .  S
N1006      H1010   1.046       .  S
N1008      H1011   1.046       .  S
N1008      H1012   1.046       .  S
C1017      C1018   1.414   1_565  A
C1017      C1022   1.408       .  A
C1018      C1019   1.398       .  A
C1018      N1023   1.433       .  S
C1019      C1020   1.399   1_545  A
C1019      H1024   1.084       .  S
C1020      C1025   1.477       .  S
C1020      C1021   1.408       .  A
C1021      C1022   1.407       .  A
C1021      N1026   1.438       .  S
C1022      H1027   1.083       .  S
N1023      H1043   1.046       .  S
N1023      H1044   1.046       .  S
C1025      C1028   1.403       .  A
C1025      C1032   1.409       .  A
N1026      H1041   1.046       .  S
N1026      H1042   1.046       .  S
C1028      C1029   1.403       .  A
C1028      H1033   1.084       .  S
C1029      C1030   1.408       .  A
C1029      N1034   1.432       .  S
C1030      C1031   1.403       .  A
C1031      C1032   1.401       .  A
C1031      H1035   1.084       .  S
C1032      N1036   1.438       .  S
N1034      H1037   1.045       .  S
N1034      H1038   1.045   1_565  S
N1036      H1039   1.046       .  S
N1036      H1040   1.046       .  S
C1045      C1046   1.418   1_456  A
C1045      C1050   1.408       .  A
C1046      C1047   1.402       .  A
C1046      N1051   1.438       .  S
C1047      C1048   1.399   1_654  A
C1047      H1052   1.084       .  S
C1048      C1053   1.475       .  S
C1048      C1049   1.407       .  A
C1049      C1050   1.401       .  A
C1049      N1054   1.438       .  S
C1050      H1055   1.083       .  S
N1051      H1071   1.045       .  S
N1051      H1072   1.046       .  S
C1053      C1056   1.399       .  A
C1053      C1060   1.409   1_455  A
N1054      H1069   1.046       .  S
N1054      H1070   1.046       .  S
C1056      C1057   1.398       .  A
C1056      H1061   1.084       .  S
C1057      C1058   1.411       .  A
C1057      N1062   1.430       .  S
C1058      C1059   1.405   1_455  A
C1059      C1060   1.403       .  A
C1059      H1063   1.084       .  S
C1060      N1064   1.438       .  S
N1062      H1065   1.046   1_556  S
N1062      H1066   1.046       .  S
N1064      H1067   1.046       .  S
N1064      H1068   1.046       .  S
C1073      C1074   1.420   1_465  A
C1073      C1078   1.407       .  A
C1074      C1075   1.405       .  A
C1074      N1079   1.438       .  S
C1075      C1076   1.399   1_545  A
C1075      H1080   1.084       .  S
C1076      C1081   1.477       .  S
C1076      C1077   1.407   1_655  A
C1077      C1078   1.402       .  A
C1077      N1082   1.438       .  S
C1078      H1083   1.083       .  S
N1079      H1099   1.046       .  S
N1079      H1100   1.046       .  S
C1081      C1084   1.401       .  A
C1081      C1088   1.409   1_665  A
N1082      H1097   1.045       .  S
N1082      H1098   1.046       .  S
C1084      C1085   1.400       .  A
C1084      H1089   1.084       .  S
C1085      C1086   1.409       .  A
C1085      N1090   1.432       .  S
C1086      C1087   1.405   1_665  A
C1087      C1088   1.403       .  A
C1087      H1091   1.084       .  S
C1088      N1092   1.438       .  S
N1090      H1093   1.046   1_655  S
N1090      H1094   1.046       .  S
N1092      H1095   1.046       .  S
N1092      H1096   1.046       .  S
C1101      C1102   1.421       .  A
C1101      C1106   1.409   1_554  A
C1102      C1103   1.409       .  A
C1102      N1107   1.438       .  S
C1103      C1104   1.402   1_554  A
C1103      H1108   1.084       .  S
C1104      C1109   1.485       .  S
C1104      C1105   1.407       .  A
C1105      C1106   1.404       .  A
C1105      N1110   1.438       .  S
C1106      H1111   1.083       .  S
N1107      H1127   1.046       .  S
N1107      H1128   1.046       .  S
C1109      C1112   1.404       .  A
C1109      C1116   1.410   1_556  A
N1110      H1125   1.046       .  S
N1110      H1126   1.046       .  S
C1112      C1113   1.400       .  A
C1112      H1117   1.084       .  S
C1113      C1114   1.413       .  A
C1113      N1118   1.432       .  S
C1114      C1115   1.404   1_556  A
C1115      C1116   1.406       .  A
C1115      H1119   1.084       .  S
C1116      N1120   1.438       .  S
N1118      H1121   1.043       .  S
N1118      H1122   1.046       .  S
N1120      H1123   1.046       .  S
N1120      H1124   1.046       .  S
C1129      C1130   1.409       .  A
C1129      C1134   1.399   1_556  A
C1130      C1131   1.402       .  A
C1130      N1135   1.432       .  S
C1131      C1132   1.403       .  A
C1131      H1136   1.084       .  S
C1132      C1137   1.480       .  S
C1132      C1133   1.410   1_556  A
C1133      C1134   1.402       .  A
C1133      N1138   1.438       .  S
C1134      H1139   1.077       .  S
N1135      H1155   1.046       .  S
N1135      H1156   1.045   1_565  S
C1137      C1140   1.401   1_556  A
C1137      C1144   1.409   1_565  A
N1138      H1153   1.046       .  S
N1138      H1154   1.046   1_565  S
C1140      C1141   1.402   1_554  A
C1140      H1145   1.084       .  S
C1141      C1142   1.415       .  A
C1141      N1146   1.438   1_556  S
C1142      C1143   1.407   1_565  A
C1143      C1144   1.405       .  A
C1143      H1147   1.084       .  S
C1144      N1148   1.438       .  S
N1146      H1149   1.046       .  S
N1146      H1150   1.046   1_554  S
N1148      H1151   1.046       .  S
N1148      H1152   1.046       .  S
C1157      C1158   1.417       .  A
C1157      C1162   1.405       .  A
C1158      C1159   1.407       .  A
C1158      N1163   1.437       .  S
C1159      C1160   1.400       .  A
C1159      H1164   1.084       .  S
C1160      C1165   1.475       .  S
C1160      C1161   1.405       .  A
C1161      C1162   1.401       .  A
C1161      N1166   1.438       .  S
C1162      H1167   1.075       .  S
N1163      H1183   1.046       .  S
N1163      H1184   1.045       .  S
C1165      C1168   1.400   1_565  A
C1165      C1172   1.407       .  A
N1166      H1181   1.046       .  S
N1166      H1182   1.045       .  S
C1168      C1169   1.405       .  A
C1168      H1173   1.084       .  S
C1169      C1170   1.413   1_545  A
C1169      N1174   1.438       .  S
C1170      C1171   1.406       .  A
C1171      C1172   1.405       .  A
C1171      H1175   1.084       .  S
C1172      N1176   1.438       .  S
N1174      H1177   1.046       .  S
N1174      H1178   1.046       .  S
N1176      H1179   1.045       .  S
N1176      H1180   1.046       .  S
C1185      C1186   1.412       .  A
C1185      C1190   1.405       .  A
C1186      C1187   1.402       .  A
C1186      N1191   1.433       .  S
C1187      C1188   1.399       .  A
C1187      H1192   1.084       .  S
C1188      C1193   1.478       .  S
C1188      C1189   1.410       .  A
C1189      C1190   1.408       .  A
C1189      N1194   1.438       .  S
C1190      H1195   1.084   1_455  S
N1191      H1211   1.046       .  S
N1191      H1212   1.046   1_455  S
C1193      C1196   1.403       .  A
C1193      C1200   1.409   1_455  A
N1194      H1209   1.046   1_455  S
N1194      H1210   1.045   1_455  S
C1196      C1197   1.404       .  A
C1196      H1201   1.084       .  S
C1197      C1198   1.407       .  A
C1197      N1202   1.432       .  S
C1198      C1199   1.403   1_455  A
C1199      C1200   1.405       .  A
C1199      H1203   1.084       .  S
C1200      N1204   1.438       .  S
N1202      H1205   1.045       .  S
N1202      H1206   1.046       .  S
N1204      H1207   1.046       .  S
N1204      H1208   1.045       .  S
C1213      C1214   1.421       .  A
C1213      C1218   1.408   1_455  A
C1214      C1215   1.408       .  A
C1214      N1219   1.438       .  S
C1215      C1216   1.401       .  A
C1215      H1220   1.084       .  S
C1216      C1221   1.486       .  S
C1216      C1217   1.409   1_455  A
C1217      C1218   1.405       .  A
C1217      N1222   1.438       .  S
C1218      H1223   1.083       .  S
N1219      H1239   1.045       .  S
N1219      H1240   1.046       .  S
C1221      C1224   1.404       .  A
C1221      C1228   1.410       .  A
N1222      H1237   1.046       .  S
N1222      H1238   1.046       .  S
C1224      C1225   1.407       .  A
C1224      H1229   1.084       .  S
C1225      C1226   1.413       .  A
C1225      N1230   1.437       .  S
C1226      C1227   1.405       .  A
C1227      C1228   1.404       .  A
C1227      H1231   1.084       .  S
C1228      N1232   1.438       .  S
N1230      H1233   1.046       .  S
N1230      H1234   1.045   1_455  S
N1232      H1235   1.046       .  S
N1232      H1236   1.046   1_455  S
C1241      C1242   1.412       .  A
C1241      C1246   1.404   1_455  A
C1242      C1243   1.407       .  A
C1242      N1247   1.437       .  S
C1243      C1244   1.404       .  A
C1243      H1248   1.084       .  S
C1244      C1249   1.483       .  S
C1244      C1245   1.409   1_455  A
C1245      C1246   1.402       .  A
C1245      N1250   1.438       .  S
C1246      H1251   1.084       .  S
N1247      H1267   1.046       .  S
N1247      H1268   1.046       .  S
C1249      C1252   1.400   1_455  A
C1249      C1256   1.409       .  A
N1250      H1265   1.046       .  S
N1250      H1266   1.046       .  S
C1252      C1253   1.404       .  A
C1252      H1257   1.084       .  S
C1253      C1254   1.418   1_655  A
C1253      N1258   1.438       .  S
C1254      C1255   1.408       .  A
C1255      C1256   1.406       .  A
C1255      H1259   1.083       .  S
C1256      N1260   1.438       .  S
N1258      H1261   1.046       .  S
N1258      H1262   1.046       .  S
N1260      H1263   1.046       .  S
N1260      H1264   1.046       .  S
C1269      C1270   1.410       .  A
C1269      C1274   1.403       .  A
C1270      C1271   1.400       .  A
C1270      N1275   1.432       .  S
C1271      C1272   1.399       .  A
C1271      H1276   1.084       .  S
C1272      C1277   1.477       .  S
C1272      C1273   1.410       .  A
C1273      C1274   1.409       .  A
C1273      N1278   1.437       .  S
C1274      H1279   1.084       .  S
N1275      H1295   1.046       .  S
N1275      H1296   1.046       .  S
C1277      C1280   1.402   1_455  A
C1277      C1284   1.406       .  A
N1278      H1293   1.046       .  S
N1278      H1294   1.045       .  S
C1280      C1281   1.408       .  A
C1280      H1285   1.084       .  S
C1281      C1282   1.413   1_655  A
C1281      N1286   1.437       .  S
C1282      C1283   1.406       .  A
C1283      C1284   1.404       .  A
C1283      H1287   1.084       .  S
C1284      N1288   1.438       .  S
N1286      H1289   1.046       .  S
N1286      H1290   1.045       .  S
N1288      H1291   1.046       .  S
N1288      H1292   1.046       .  S
C1297      C1298   1.422       .  A
C1297      C1302   1.414       .  A
C1298      C1299   1.408       .  A
C1298      N1303   1.438   1_545  S
C1299      C1300   1.403       .  A
C1299      H1304   1.083       .  S
C1300      C1305   1.496       .  S
C1300      C1301   1.409       .  A
C1301      C1302   1.408       .  A
C1301      N1306   1.438       .  S
C1302      H1307   1.078       .  S
N1303      H1323   1.045       .  S
N1303      H1324   1.045       .  S
C1305      C1308   1.407       .  A
C1305      C1312   1.414       .  A
N1306      H1321   1.045       .  S
N1306      H1322   1.046       .  S
C1308      C1309   1.408       .  A
C1308      H1313   1.083       .  S
C1309      C1310   1.408       .  A
C1309      N1314   1.437       .  S
C1310      C1311   1.401       .  A
C1311      C1312   1.407       .  A
C1311      H1315   1.083       .  S
C1312      N1316   1.438       .  S
N1314      H1317   1.045       .  S
N1314      H1318   1.045       .  S
N1316      H1319   1.046       .  S
N1316      H1320   1.045       .  S
C1325      C1326   1.408       .  A
C1325      C1330   1.404   1_545  A
C1326      C1327   1.402       .  A
C1326      N1331   1.432       .  S
C1327      C1328   1.404       .  A
C1327      H1332   1.084       .  S
C1328      C1333   1.482       .  S
C1328      C1329   1.410   1_545  A
C1329      C1330   1.403       .  A
C1329      N1334   1.438       .  S
C1330      H1335   1.084       .  S
N1331      H1351   1.046   1_545  S
N1331      H1352   1.046       .  S
C1333      C1336   1.402   1_545  A
C1333      C1340   1.407       .  A
N1334      H1349   1.046       .  S
N1334      H1350   1.045   1_565  S
C1336      C1337   1.405       .  A
C1336      H1341   1.084       .  S
C1337      C1338   1.416       .  A
C1337      N1342   1.438       .  S
C1338      C1339   1.408   1_565  A
C1339      C1340   1.403       .  A
C1339      H1343   1.083       .  S
C1340      N1344   1.438       .  S
N1342      H1345   1.046       .  S
N1342      H1346   1.045       .  S
N1344      H1347   1.046       .  S
N1344      H1348   1.045       .  S
C1353      C1354   1.416       .  A
C1353      C1358   1.405       .  A
C1354      C1355   1.404       .  A
C1354      N1359   1.438       .  S
C1355      C1356   1.398       .  A
C1355      H1360   1.084       .  S
C1356      C1361   1.477       .  S
C1356      C1357   1.409       .  A
C1357      C1358   1.407       .  A
C1357      N1362   1.438       .  S
C1358      H1363   1.084       .  S
N1359      H1379   1.046       .  S
N1359      H1380   1.046       .  S
C1361      C1364   1.400       .  A
C1361      C1368   1.408   1_565  A
N1362      H1377   1.046       .  S
N1362      H1378   1.045   1_565  S
C1364      C1365   1.406       .  A
C1364      H1369   1.084       .  S
C1365      C1366   1.416       .  A
C1365      N1370   1.438       .  S
C1366      C1367   1.404   1_565  A
C1367      C1368   1.404       .  A
C1367      H1371   1.083       .  S
C1368      N1372   1.438       .  S
N1370      H1373   1.045       .  S
N1370      H1374   1.046       .  S
N1372      H1375   1.046       .  S
N1372      H1376   1.045       .  S
C1381      C1382   1.417       .  A
C1381      C1386   1.407       .  A
C1382      C1383   1.406       .  A
C1382      N1387   1.438       .  S
C1383      C1384   1.402       .  A
C1383      H1388   1.084       .  S
C1384      C1389   1.487       .  S
C1384      C1385   1.410       .  A
C1385      C1386   1.407       .  A
C1385      N1390   1.438       .  S
C1386      H1391   1.083       .  S
N1387      H1407   1.046       .  S
N1387      H1408   1.046       .  S
C1389      C1392   1.403       .  A
C1389      C1396   1.412       .  A
N1390      H1405   1.046       .  S
N1390      H1406   1.046       .  S
C1392      C1393   1.404       .  A
C1392      H1397   1.084       .  S
C1393      C1394   1.411       .  A
C1393      N1398   1.433       .  S
C1394      C1395   1.403       .  A
C1395      C1396   1.407       .  A
C1395      H1399   1.083       .  S
C1396      N1400   1.438       .  S
N1398      H1401   1.046       .  S
N1398      H1402   1.046       .  S
N1400      H1403   1.046       .  S
N1400      H1404   1.046       .  S
C1409      C1410   1.418       .  A
C1409      C1414   1.406       .  A
C1410      C1411   1.407       .  A
C1410      N1415   1.438       .  S
C1411      C1412   1.402       .  A
C1411      H1416   1.084       .  S
C1412      C1417   1.498       .  S
C1412      C1413   1.414       .  A
C1413      C1414   1.415       .  A
C1413      N1418   1.437       .  S
C1414      H1419   1.084       .  S
N1415      H1435   1.043       .  S
N1415      H1436   1.045       .  S
C1417      C1420   1.401       .  A
C1417      C1424   1.410       .  A
N1418      H1433   1.046       .  S
N1418      H1434   1.046       .  S
C1420      C1421   1.413       .  A
C1420      H1425   1.083       .  S
C1421      C1422   1.426       .  A
C1421      N1426   1.439       .  S
C1422      C1423   1.414       .  A
C1423      C1424   1.410       .  A
C1423      H1427   1.075       .  S
C1424      N1428   1.439       .  S
N1426      H1429   1.046       .  S
N1426      H1430   1.044       .  S
N1428      H1431   1.045       .  S
N1428      H1432   1.046       .  S
C1437      C1438   1.420       .  A
C1437      C1442   1.413       .  A
C1438      C1439   1.402       .  A
C1438      N1443   1.433       .  S
C1439      C1440   1.399       .  A
C1439      H1444   1.084       .  S
C1440      C1445   1.487       .  S
C1440      C1441   1.409       .  A
C1441      C1442   1.408       .  A
C1441      N1446   1.438       .  S
C1442      H1447   1.075       .  S
N1443      H1463   1.046       .  S
N1443      H1464   1.046       .  S
C1445      C1448   1.399       .  A
C1445      C1452   1.409       .  A
N1446      H1461   1.045       .  S
N1446      H1462   1.046       .  S
C1448      C1449   1.403       .  A
C1448      H1453   1.084       .  S
C1449      C1450   1.419       .  A
C1449      N1454   1.433       .  S
C1450      C1451   1.412       .  A
C1451      C1452   1.407       .  A
C1451      H1455   1.075       .  S
C1452      N1456   1.439       .  S
N1454      H1457   1.046       .  S
N1454      H1458   1.046       .  S
N1456      H1459   1.045       .  S
N1456      H1460   1.046       .  S
C1465      C1466   1.419       .  A
C1465      C1470   1.413       .  A
C1466      C1467   1.410       .  A
C1466      N1471   1.433       .  S
C1467      C1468   1.406       .  A
C1467      H1472   1.083       .  S
C1468      C1473   1.505       .  S
C1468      C1469   1.413       .  A
C1469      C1470   1.411       .  A
C1469      N1474   1.438       .  S
C1470      H1475   1.075       .  S
N1471      H1491   1.046       .  S
N1471      H1492   1.046       .  S
C1473      C1476   1.408       .  A
C1473      C1480   1.417       .  A
N1474      H1489   1.045       .  S
N1474      H1490   1.046       .  S
C1476      C1477   1.409       .  A
C1476      H1481   1.083       .  S
C1477      C1478   1.407       .  A
C1477      N1482   1.436       .  S
C1478      C1479   1.403       .  A
C1479      C1480   1.413       .  A
C1479      H1483   1.084       .  S
C1480      N1484   1.437       .  S
N1482      H1485   1.046       .  S
N1482      H1486   1.046       .  S
N1484      H1487   1.046       .  S
N1484      H1488   1.045       .  S
C1493      C1494   1.414       .  A
C1493      C1498   1.404       .  A
C1494      C1495   1.405       .  A
C1494      N1499   1.438       .  S
C1495      C1496   1.400       .  A
C1495      H1500   1.084       .  S
C1496      C1501   1.481       .  S
C1496      C1497   1.411       .  A
C1497      C1498   1.409       .  A
C1497      N1502   1.438       .  S
C1498      H1503   1.084       .  S
N1499      H1519   1.046       .  S
N1499      H1520   1.046       .  S
C1501      C1504   1.401       .  A
C1501      C1508   1.411       .  A
N1502      H1517   1.046       .  S
N1502      H1518   1.044       .  S
C1504      C1505   1.403       .  A
C1504      H1509   1.084       .  S
C1505      C1506   1.409       .  A
C1505      N1510   1.433       .  S
C1506      C1507   1.404       .  A
C1507      C1508   1.409       .  A
C1507      H1511   1.084       .  S
C1508      N1512   1.438       .  S
N1510      H1513   1.046       .  S
N1510      H1514   1.045       .  S
N1512      H1515   1.046       .  S
N1512      H1516   1.045       .  S
C1521      C1522   1.417       .  A
C1521      C1526   1.409       .  A
C1522      C1523   1.407       .  A
C1522      N1527   1.438       .  S
C1523      C1524   1.403       .  A
C1523      H1528   1.084       .  S
C1524      C1529   1.486       .  S
C1524      C1525   1.408       .  A
C1525      C1526   1.404       .  A
C1525      N1530   1.438       .  S
C1526      H1531   1.083       .  S
N1527      H1547   1.046       .  S
N1527      H1548   1.046       .  S
C1529      C1532   1.404       .  A
C1529      C1536   1.410       .  A
N1530      H1545   1.046       .  S
N1530      H1546   1.046       .  S
C1532      C1533   1.407       .  A
C1532      H1537   1.084       .  S
C1533      C1534   1.414       .  A
C1533      N1538   1.438       .  S
C1534      C1535   1.403       .  A
C1535      C1536   1.403       .  A
C1535      H1539   1.080       .  S
C1536      N1540   1.438       .  S
N1538      H1541   1.046       .  S
N1538      H1542   1.046       .  S
N1540      H1543   1.046       .  S
N1540      H1544   1.046       .  S
C1549      C1550   1.420       .  A
C1549      C1554   1.412       .  A
C1550      C1551   1.409       .  A
C1550      N1555   1.433       .  S
C1551      C1552   1.401       .  A
C1551      H1556   1.084       .  S
C1552      C1557   1.495       .  S
C1552      C1553   1.411       .  A
C1553      C1554   1.408       .  A
C1553      N1558   1.439       .  S
C1554      H1559   1.075       .  S
N1555      H1575   1.045       .  S
N1555      H1576   1.046       .  S
C1557      C1560   1.403       .  A
C1557      C1564   1.415       .  A
N1558      H1573   1.045       .  S
N1558      H1574   1.046       .  S
C1560      C1561   1.405       .  A
C1560      H1565   1.084       .  S
C1561      C1562   1.413       .  A
C1561      N1566   1.438       .  S
C1562      C1563   1.404       .  A
C1563      C1564   1.415       .  A
C1563      H1567   1.084       .  S
C1564      N1568   1.437       .  S
N1566      H1569   1.046       .  S
N1566      H1570   1.046       .  S
N1568      H1571   1.046       .  S
N1568      H1572   1.046       .  S
C1577      C1578   1.413       .  A
C1577      C1582   1.404       .  A
C1578      C1579   1.407       .  A
C1578      N1583   1.438       .  S
C1579      C1580   1.405       .  A
C1579      H1584   1.084       .  S
C1580      C1585   1.492       .  S
C1580      C1581   1.412       .  A
C1581      C1582   1.406       .  A
C1581      N1586   1.438       .  S
C1582      H1587   1.081       .  S
N1583      H1603   1.046       .  S
N1583      H1604   1.045       .  S
C1585      C1588   1.404       .  A
C1585      C1592   1.410   1_455  A
N1586      H1601   1.046       .  S
N1586      H1602   1.046   1_455  S
C1588      C1589   1.409       .  A
C1588      H1593   1.084       .  S
C1589      C1590   1.419       .  A
C1589      N1594   1.438       .  S
C1590      C1591   1.409   1_455  A
C1591      C1592   1.406       .  A
C1591      H1595   1.083       .  S
C1592      N1596   1.438       .  S
N1594      H1597   1.046       .  S
N1594      H1598   1.046       .  S
N1596      H1599   1.045       .  S
N1596      H1600   1.046       .  S
C1605      C1606   1.409   1_565  A
C1605      C1610   1.402       .  A
C1606      C1607   1.404       .  A
C1606      N1611   1.432       .  S
C1607      C1608   1.403   1_545  A
C1607      H1612   1.084       .  S
C1608      C1613   1.483       .  S
C1608      C1609   1.412       .  A
C1609      C1610   1.405       .  A
C1609      N1614   1.438       .  S
C1610      H1615   1.084       .  S
N1611      H1631   1.045       .  S
N1611      H1632   1.045       .  S
C1613      C1616   1.399       .  A
C1613      C1620   1.410   1_565  A
N1614      H1629   1.046       .  S
N1614      H1630   1.046       .  S
C1616      C1617   1.401       .  A
C1616      H1621   1.084       .  S
C1617      C1618   1.417       .  A
C1617      N1622   1.433       .  S
C1618      C1619   1.408   1_565  A
C1619      C1620   1.409       .  A
C1619      H1623   1.083       .  S
C1620      N1624   1.437       .  S
N1622      H1625   1.046       .  S
N1622      H1626   1.046       .  S
N1624      H1627   1.046       .  S
N1624      H1628   1.046       .  S
C1633      C1634   1.418       .  A
C1633      C1638   1.414       .  A
C1634      C1635   1.404       .  A
C1634      N1639   1.433       .  S
C1635      C1636   1.400       .  A
C1635      H1640   1.084       .  S
C1636      C1641   1.480       .  S
C1636      C1637   1.404       .  A
C1637      C1638   1.402       .  A
C1637      N1642   1.439       .  S
C1638      H1643   1.072   1_655  S
N1639      H1659   1.046       .  S
N1639      H1660   1.046       .  S
C1641      C1644   1.400       .  A
C1641      C1648   1.405       .  A
N1642      H1657   1.045   1_655  S
N1642      H1658   1.046       .  S
C1644      C1645   1.402       .  A
C1644      H1649   1.084       .  S
C1645      C1646   1.418       .  A
C1645      N1650   1.433       .  S
C1646      C1647   1.415       .  A
C1647      C1648   1.405       .  A
C1647      H1651   1.076       .  S
C1648      N1652   1.439       .  S
N1650      H1653   1.045       .  S
N1650      H1654   1.046       .  S
N1652      H1655   1.046       .  S
N1652      H1656   1.046       .  S
C1661      C1662   1.420       .  A
C1661      C1666   1.404       .  A
C1662      C1663   1.407       .  A
C1662      N1667   1.438       .  S
C1663      C1664   1.400       .  A
C1663      H1668   1.084       .  S
C1664      C1669   1.490       .  S
C1664      C1665   1.410       .  A
C1665      C1666   1.412       .  A
C1665      N1670   1.437       .  S
C1666      H1671   1.077       .  S
N1667      H1687   1.044       .  S
N1667      H1688   1.046       .  S
C1669      C1672   1.400       .  A
C1669      C1676   1.407       .  A
N1670      H1685   1.046       .  S
N1670      H1686   1.046       .  S
C1672      C1673   1.408       .  A
C1672      H1677   1.084       .  S
C1673      C1674   1.420       .  A
C1673      N1678   1.433       .  S
C1674      C1675   1.415       .  A
C1675      C1676   1.410       .  A
C1675      H1679   1.075       .  S
C1676      N1680   1.438       .  S
N1678      H1681   1.046       .  S
N1678      H1682   1.046       .  S
N1680      H1683   1.045       .  S
N1680      H1684   1.046       .  S
C1689      C1690   1.411       .  A
C1689      C1694   1.409       .  A
C1690      C1691   1.412       .  A
C1690      N1695   1.433       .  S
C1691      C1692   1.404       .  A
C1691      H1696   1.084       .  S
C1692      C1697   1.483       .  S
C1692      C1693   1.406       .  A
C1693      C1694   1.403       .  A
C1693      N1698   1.438       .  S
C1694      H1699   1.084       .  S
N1695      H1715   1.046       .  S
N1695      H1716   1.046       .  S
C1697      C1700   1.398       .  A
C1697      C1704   1.404       .  A
N1698      H1713   1.046       .  S
N1698      H1714   1.045       .  S
C1700      C1701   1.408       .  A
C1700      H1705   1.084       .  S
C1701      C1702   1.424       .  A
C1701      N1706   1.439       .  S
C1702      C1703   1.415       .  A
C1703      C1704   1.409       .  A
C1703      H1707   1.078       .  S
C1704      N1708   1.438       .  S
N1706      H1709   1.046       .  S
N1706      H1710   1.045       .  S
N1708      H1711   1.045       .  S
N1708      H1712   1.045       .  S
C1717      C1718   1.408       .  A
C1717      C1722   1.402       .  A
C1718      C1719   1.407       .  A
C1718      N1723   1.436       .  S
C1719      C1720   1.402       .  A
C1719      H1724   1.084       .  S
C1720      C1725   1.485       .  S
C1720      C1721   1.411       .  A
C1721      C1722   1.410       .  A
C1721      N1726   1.437       .  S
C1722      H1727   1.084       .  S
N1723      H1743   1.046       .  S
N1723      H1744   1.046       .  S
C1725      C1728   1.399       .  A
C1725      C1732   1.406       .  A
N1726      H1741   1.046       .  S
N1726      H1742   1.045       .  S
C1728      C1729   1.407       .  A
C1728      H1733   1.084       .  S
C1729      C1730   1.421       .  A
C1729      N1734   1.433       .  S
C1730      C1731   1.413       .  A
C1731      C1732   1.407       .  A
C1731      H1735   1.074       .  S
C1732      N1736   1.439       .  S
N1734      H1737   1.046       .  S
N1734      H1738   1.046       .  S
N1736      H1739   1.045       .  S
N1736      H1740   1.045       .  S
C1745      C1746   1.416       .  A
C1745      C1750   1.406       .  A
C1746      C1747   1.407       .  A
C1746      N1751   1.438       .  S
C1747      C1748   1.400       .  A
C1747      H1752   1.084       .  S
C1748      C1753   1.481       .  S
C1748      C1749   1.409       .  A
C1749      C1750   1.408       .  A
C1749      N1754   1.438       .  S
C1750      H1755   1.084       .  S
N1751      H1771   1.046       .  S
N1751      H1772   1.046       .  S
C1753      C1756   1.400       .  A
C1753      C1760   1.409       .  A
N1754      H1769   1.046       .  S
N1754      H1770   1.045       .  S
C1756      C1757   1.407       .  A
C1756      H1761   1.084       .  S
C1757      C1758   1.415       .  A
C1757      N1762   1.438       .  S
C1758      C1759   1.405       .  A
C1759      C1760   1.407       .  A
C1759      H1763   1.083       .  S
C1760      N1764   1.438       .  S
N1762      H1765   1.046       .  S
N1762      H1766   1.046       .  S
N1764      H1767   1.045       .  S
N1764      H1768   1.045       .  S
C1773      C1774   1.414       .  A
C1773      C1778   1.403       .  A
C1774      C1775   1.407       .  A
C1774      N1779   1.438       .  S
C1775      C1776   1.401       .  A
C1775      H1780   1.084       .  S
C1776      C1781   1.479       .  S
C1776      C1777   1.409       .  A
C1777      C1778   1.406       .  A
C1777      N1782   1.438       .  S
C1778      H1783   1.084       .  S
N1779      H1799   1.046       .  S
N1779      H1800   1.046       .  S
C1781      C1784   1.399       .  A
C1781      C1788   1.409       .  A
N1782      H1797   1.046       .  S
N1782      H1798   1.045       .  S
C1784      C1785   1.403       .  A
C1784      H1789   1.084       .  S
C1785      C1786   1.414       .  A
C1785      N1790   1.437       .  S
C1786      C1787   1.405       .  A
C1787      C1788   1.409       .  A
C1787      H1791   1.083       .  S
C1788      N1792   1.438       .  S
N1790      H1793   1.045       .  S
N1790      H1794   1.045       .  S
N1792      H1795   1.045       .  S
N1792      H1796   1.045       .  S
C1801      C1802   1.413       .  A
C1801      C1806   1.407       .  A
C1802      C1803   1.409       .  A
C1802      N1807   1.437       .  S
C1803      C1804   1.402       .  A
C1803      H1808   1.084       .  S
C1804      C1809   1.478       .  S
C1804      C1805   1.407       .  A
C1805      C1806   1.404       .  A
C1805      N1810   1.438       .  S
C1806      H1811   1.084       .  S
N1807      H1827   1.046       .  S
N1807      H1828   1.046       .  S
C1809      C1812   1.400       .  A
C1809      C1816   1.410       .  A
N1810      H1825   1.046       .  S
N1810      H1826   1.045       .  S
C1812      C1813   1.405       .  A
C1812      H1817   1.084       .  S
C1813      C1814   1.412       .  A
C1813      N1818   1.437       .  S
C1814      C1815   1.404       .  A
C1815      C1816   1.407       .  A
C1815      H1819   1.084       .  S
C1816      N1820   1.438       .  S
N1818      H1821   1.046       .  S
N1818      H1822   1.045       .  S
N1820      H1823   1.046       .  S
N1820      H1824   1.045       .  S
C1829      C1830   1.419       .  A
C1829      C1834   1.406       .  A
C1830      C1831   1.407       .  A
C1830      N1835   1.438       .  S
C1831      C1832   1.401       .  A
C1831      H1836   1.084       .  S
C1832      C1837   1.482       .  S
C1832      C1833   1.407       .  A
C1833      C1834   1.400       .  A
C1833      N1838   1.439       .  S
C1834      H1839   1.075       .  S
N1835      H1855   1.046       .  S
N1835      H1856   1.046       .  S
C1837      C1840   1.399       .  A
C1837      C1844   1.408       .  A
N1838      H1853   1.046       .  S
N1838      H1854   1.046       .  S
C1840      C1841   1.403       .  A
C1840      H1845   1.084       .  S
C1841      C1842   1.421       .  A
C1841      N1846   1.438       .  S
C1842      C1843   1.409       .  A
C1843      C1844   1.406       .  A
C1843      H1847   1.083       .  S
C1844      N1848   1.438       .  S
N1846      H1849   1.046       .  S
N1846      H1850   1.046       .  S
N1848      H1851   1.046       .  S
N1848      H1852   1.046       .  S
C1857      C1858   1.414   1_565  A
C1857      C1862   1.405       .  A
C1858      C1859   1.406       .  A
C1858      N1863   1.438       .  S
C1859      C1860   1.400   1_545  A
C1859      H1864   1.084       .  S
C1860      C1865   1.476       .  S
C1860      C1861   1.407       .  A
C1861      C1862   1.404       .  A
C1861      N1866   1.438       .  S
C1862      H1867   1.084       .  S
N1863      H1883   1.046       .  S
N1863      H1884   1.046       .  S
C1865      C1868   1.400       .  A
C1865      C1872   1.407       .  A
N1866      H1881   1.046       .  S
N1866      H1882   1.045       .  S
C1868      C1869   1.405       .  A
C1868      H1873   1.084       .  S
C1869      C1870   1.414       .  A
C1869      N1874   1.438       .  S
C1870      C1871   1.405       .  A
C1871      C1872   1.404       .  A
C1871      H1875   1.083       .  S
C1872      N1876   1.438       .  S
N1874      H1877   1.046       .  S
N1874      H1878   1.045   1_565  S
N1876      H1879   1.046   1_565  S
N1876      H1880   1.045       .  S
C1885      C1886   1.412       .  A
C1885      C1890   1.405       .  A
C1886      C1887   1.407       .  A
C1886      N1891   1.438       .  S
C1887      C1888   1.402       .  A
C1887      H1892   1.084       .  S
C1888      C1893   1.477       .  S
C1888      C1889   1.408       .  A
C1889      C1890   1.404       .  A
C1889      N1894   1.438       .  S
C1890      H1895   1.084       .  S
N1891      H1911   1.046       .  S
N1891      H1912   1.046       .  S
C1893      C1896   1.403       .  A
C1893      C1900   1.407       .  A
N1894      H1909   1.046       .  S
N1894      H1910   1.044       .  S
C1896      C1897   1.409       .  A
C1896      H1901   1.084       .  S
C1897      C1898   1.411       .  A
C1897      N1902   1.437       .  S
C1898      C1899   1.400       .  A
C1899      C1900   1.401       .  A
C1899      H1903   1.077       .  S
C1900      N1904   1.439       .  S
N1902      H1905   1.046       .  S
N1902      H1906   1.046       .  S
N1904      H1907   1.046       .  S
N1904      H1908   1.044       .  S
C1913      C1914   1.413       .  A
C1913      C1918   1.406       .  A
C1914      C1915   1.408       .  A
C1914      N1919   1.438       .  S
C1915      C1916   1.402       .  A
C1915      H1920   1.084       .  S
C1916      C1921   1.480       .  S
C1916      C1917   1.408       .  A
C1917      C1918   1.405       .  A
C1917      N1922   1.438       .  S
C1918      H1923   1.084       .  S
N1919      H1939   1.046       .  S
N1919      H1940   1.046       .  S
C1921      C1924   1.400       .  A
C1921      C1928   1.410       .  A
N1922      H1937   1.045       .  S
N1922      H1938   1.044       .  S
C1924      C1925   1.405       .  A
C1924      H1929   1.084       .  S
C1925      C1926   1.414       .  A
C1925      N1930   1.437       .  S
C1926      C1927   1.404       .  A
C1927      C1928   1.407       .  A
C1927      H1931   1.084       .  S
C1928      N1932   1.438       .  S
N1930      H1933   1.045       .  S
N1930      H1934   1.044       .  S
N1932      H1935   1.046       .  S
N1932      H1936   1.044       .  S
C1941      C1942   1.424       .  A
C1941      C1946   1.414       .  A
C1942      C1943   1.407       .  A
C1942      N1947   1.439       .  S
C1943      C1944   1.398       .  A
C1943      H1948   1.084       .  S
C1944      C1949   1.484       .  S
C1944      C1945   1.405       .  A
C1945      C1946   1.409       .  A
C1945      N1950   1.438       .  S
C1946      H1951   1.077       .  S
N1947      H1967   1.044       .  S
N1947      H1968   1.046       .  S
C1949      C1952   1.403       .  A
C1949      C1956   1.407       .  A
N1950      H1965   1.045       .  S
N1950      H1966   1.045       .  S
C1952      C1953   1.411       .  A
C1952      H1957   1.084       .  S
C1953      C1954   1.414       .  A
C1953      N1958   1.436       .  S
C1954      C1955   1.407       .  A
C1955      C1956   1.405       .  A
C1955      H1959   1.083       .  S
C1956      N1960   1.438       .  S
N1958      H1961   1.046       .  S
N1958      H1962   1.045       .  S
N1960      H1963   1.045       .  S
N1960      H1964   1.045       .  S
C1969      C1970   1.409       .  A
C1969      C1974   1.402       .  A
C1970      C1971   1.403       .  A
C1970      N1975   1.437       .  S
C1971      C1972   1.401       .  A
C1971      H1976   1.084       .  S
C1972      C1977   1.475       .  S
C1972      C1973   1.409       .  A
C1973      C1974   1.405       .  A
C1973      N1978   1.438       .  S
C1974      H1979   1.084       .  S
N1975      H1995   1.046       .  S
N1975      H1996   1.045       .  S
C1977      C1980   1.399       .  A
C1977      C1984   1.406       .  A
N1978      H1993   1.046       .  S
N1978      H1994   1.045       .  S
C1980      C1981   1.406       .  A
C1980      H1985   1.084       .  S
C1981      C1982   1.418       .  A
C1981      N1986   1.438       .  S
C1982      C1983   1.408       .  A
C1983      C1984   1.404       .  A
C1983      H1987   1.083       .  S
C1984      N1988   1.438       .  S
N1986      H1989   1.046       .  S
N1986      H1990   1.045       .  S
N1988      H1991   1.046       .  S
N1988      H1992   1.045       .  S
C1997      C1998   1.422       .  A
C1997      C2002   1.407       .  A
C1998      C1999   1.404       .  A
C1998      N2003   1.438       .  S
C1999      C2000   1.399       .  A
C1999      H2004   1.084       .  S
C2000      C2005   1.484       .  S
C2000      C2001   1.410       .  A
C2001      C2002   1.406       .  A
C2001      N2006   1.438       .  S
C2002      H2007   1.083       .  S
N2003      H2023   1.046       .  S
N2003      H2024   1.046       .  S
C2005      C2008   1.402       .  A
C2005      C2012   1.414       .  A
N2006      H2021   1.046       .  S
N2006      H2022   1.046       .  S
C2008      C2009   1.399       .  A
C2008      H2013   1.084       .  S
C2009      C2010   1.408       .  A
C2009      N2014   1.432       .  S
C2010      C2011   1.401       .  A
C2011      C2012   1.408       .  A
C2011      H2015   1.084       .  S
C2012      N2016   1.438       .  S
N2014      H2017   1.045       .  S
N2014      H2018   1.046       .  S
N2016      H2019   1.046       .  S
N2016      H2020   1.046       .  S
C2025      C2026   1.416       .  A
C2025      C2030   1.410       .  A
C2026      C2027   1.409       .  A
C2026      N2031   1.437       .  S
C2027      C2028   1.403       .  A
C2027      H2032   1.084       .  S
C2028      C2033   1.488       .  S
C2028      C2029   1.408       .  A
C2029      C2030   1.406       .  A
C2029      N2034   1.438       .  S
C2030      H2035   1.083       .  S
N2031      H2051   1.045       .  S
N2031      H2052   1.046       .  S
C2033      C2036   1.404       .  A
C2033      C2040   1.410       .  A
N2034      H2049   1.046       .  S
N2034      H2050   1.046       .  S
C2036      C2037   1.407       .  A
C2036      H2041   1.084       .  S
C2037      C2038   1.413       .  A
C2037      N2042   1.437       .  S
C2038      C2039   1.405       .  A
C2039      C2040   1.406       .  A
C2039      H2043   1.084       .  S
C2040      N2044   1.438       .  S
N2042      H2045   1.045       .  S
N2042      H2046   1.046       .  S
N2044      H2047   1.046       .  S
N2044      H2048   1.045       .  S
C2053      C2054   1.417       .  A
C2053      C2058   1.408       .  A
C2054      C2055   1.405       .  A
C2054      N2059   1.438       .  S
C2055      C2056   1.401       .  A
C2055      H2060   1.084       .  S
C2056      C2061   1.481       .  S
C2056      C2057   1.408       .  A
C2057      C2058   1.405       .  A
C2057      N2062   1.438       .  S
C2058      H2063   1.083       .  S
N2059      H2079   1.046       .  S
N2059      H2080   1.046       .  S
C2061      C2064   1.404       .  A
C2061      C2068   1.409       .  A
N2062      H2077   1.046       .  S
N2062      H2078   1.046       .  S
C2064      C2065   1.407       .  A
C2064      H2069   1.084       .  S
C2065      C2066   1.412       .  A
C2065      N2070   1.438       .  S
C2066      C2067   1.403       .  A
C2067      C2068   1.402       .  A
C2067      H2071   1.084       .  S
C2068      N2072   1.438       .  S
N2070      H2073   1.046       .  S
N2070      H2074   1.045       .  S
N2072      H2075   1.046       .  S
N2072      H2076   1.046       .  S
C2081      C2082   1.417       .  A
C2081      C2086   1.405       .  A
C2082      C2083   1.406       .  A
C2082      N2087   1.438       .  S
C2083      C2084   1.401       .  A
C2083      H2088   1.084       .  S
C2084      C2089   1.483       .  S
C2084      C2085   1.410       .  A
C2085      C2086   1.406       .  A
C2085      N2090   1.438       .  S
C2086      H2091   1.083       .  S
N2087      H2107   1.046       .  S
N2087      H2108   1.046       .  S
C2089      C2092   1.403       .  A
C2089      C2096   1.411       .  A
N2090      H2105   1.046       .  S
N2090      H2106   1.046       .  S
C2092      C2093   1.405       .  A
C2092      H2097   1.084       .  S
C2093      C2094   1.411       .  A
C2093      N2098   1.438       .  S
C2094      C2095   1.402       .  A
C2095      C2096   1.405       .  A
C2095      H2099   1.084       .  S
C2096      N2100   1.438       .  S
N2098      H2101   1.046       .  S
N2098      H2102   1.046       .  S
N2100      H2103   1.046       .  S
N2100      H2104   1.046       .  S
C2109      C2110   1.413       .  A
C2109      C2114   1.405       .  A
C2110      C2111   1.409       .  A
C2110      N2115   1.437       .  S
C2111      C2112   1.404       .  A
C2111      H2116   1.084       .  S
C2112      C2117   1.485       .  S
C2112      C2113   1.408       .  A
C2113      C2114   1.404       .  A
C2113      N2118   1.438       .  S
C2114      H2119   1.083       .  S
N2115      H2135   1.046       .  S
N2115      H2136   1.046       .  S
C2117      C2120   1.401       .  A
C2117      C2124   1.408       .  A
N2118      H2133   1.046       .  S
N2118      H2134   1.046       .  S
C2120      C2121   1.407       .  A
C2120      H2125   1.084       .  S
C2121      C2122   1.418       .  A
C2121      N2126   1.438       .  S
C2122      C2123   1.409       .  A
C2123      C2124   1.407       .  A
C2123      H2127   1.083       .  S
C2124      N2128   1.438       .  S
N2126      H2129   1.046       .  S
N2126      H2130   1.046       .  S
N2128      H2131   1.046       .  S
N2128      H2132   1.046       .  S
C2137      C2138   1.411       .  A
C2137      C2142   1.404       .  A
C2138      C2139   1.407       .  A
C2138      N2143   1.437       .  S
C2139      C2140   1.405       .  A
C2139      H2144   1.084       .  S
C2140      C2145   1.485       .  S
C2140      C2141   1.410       .  A
C2141      C2142   1.403       .  A
C2141      N2146   1.438       .  S
C2142      H2147   1.084       .  S
N2143      H2163   1.046       .  S
N2143      H2164   1.046       .  S
C2145      C2148   1.402       .  A
C2145      C2152   1.409       .  A
N2146      H2161   1.046       .  S
N2146      H2162   1.046       .  S
C2148      C2149   1.407       .  A
C2148      H2153   1.084       .  S
C2149      C2150   1.418       .  A
C2149      N2154   1.438       .  S
C2150      C2151   1.408       .  A
C2151      C2152   1.403       .  A
C2151      H2155   1.083       .  S
C2152      N2156   1.438       .  S
N2154      H2157   1.046       .  S
N2154      H2158   1.046       .  S
N2156      H2159   1.046       .  S
N2156      H2160   1.046       .  S
C2165      C2166   1.412       .  A
C2165      C2170   1.404       .  A
C2166      C2167   1.403       .  A
C2166      N2171   1.432       .  S
C2167      C2168   1.403       .  A
C2167      H2172   1.084       .  S
C2168      C2173   1.499       .  S
C2168      C2169   1.416       .  A
C2169      C2170   1.415       .  A
C2169      N2174   1.437       .  S
C2170      H2175   1.083       .  S
N2171      H2191   1.046       .  S
N2171      H2192   1.046       .  S
C2173      C2176   1.402       .  A
C2173      C2180   1.413       .  A
N2174      H2189   1.046       .  S
N2174      H2190   1.046       .  S
C2176      C2177   1.407       .  A
C2176      H2181   1.084       .  S
C2177      C2178   1.420       .  A
C2177      N2182   1.433       .  S
C2178      C2179   1.411       .  A
C2179      C2180   1.410       .  A
C2179      H2183   1.076       .  S
C2180      N2184   1.438       .  S
N2182      H2185   1.046       .  S
N2182      H2186   1.046       .  S
N2184      H2187   1.045       .  S
N2184      H2188   1.046       .  S
C2193      C2194   1.409       .  A
C2193      C2198   1.404       .  A
C2194      C2195   1.404       .  A
C2194      N2199   1.432       .  S
C2195      C2196   1.401       .  A
C2195      H2200   1.084       .  S
C2196      C2201   1.481       .  S
C2196      C2197   1.409       .  A
C2197      C2198   1.408       .  A
C2197      N2202   1.437       .  S
C2198      H2203   1.084       .  S
N2199      H2219   1.045       .  S
N2199      H2220   1.046       .  S
C2201      C2204   1.400       .  A
C2201      C2208   1.408       .  A
N2202      H2217   1.046       .  S
N2202      H2218   1.045       .  S
C2204      C2205   1.408       .  A
C2204      H2209   1.084       .  S
C2205      C2206   1.416       .  A
C2205      N2210   1.438       .  S
C2206      C2207   1.406       .  A
C2207      C2208   1.407       .  A
C2207      H2211   1.084       .  S
C2208      N2212   1.438       .  S
N2210      H2213   1.046       .  S
N2210      H2214   1.045       .  S
N2212      H2215   1.045       .  S
N2212      H2216   1.045       .  S
C2221      C2222   1.410       .  A
C2221      C2226   1.404       .  A
C2222      C2223   1.399       .  A
C2222      N2227   1.432       .  S
C2223      C2224   1.400       .  A
C2223      H2228   1.084       .  S
C2224      C2229   1.482       .  S
C2224      C2225   1.412       .  A
C2225      C2226   1.409       .  A
C2225      N2230   1.437       .  S
C2226      H2231   1.084       .  S
N2227      H2247   1.045       .  S
N2227      H2248   1.046       .  S
C2229      C2232   1.400   1_556  A
C2229      C2236   1.409       .  A
N2230      H2245   1.046       .  S
N2230      H2246   1.046       .  S
C2232      C2233   1.406       .  A
C2232      H2237   1.084       .  S
C2233      C2234   1.418   1_554  A
C2233      N2238   1.438       .  S
C2234      C2235   1.407       .  A
C2235      C2236   1.406       .  A
C2235      H2239   1.083       .  S
C2236      N2240   1.438       .  S
N2238      H2241   1.046       .  S
N2238      H2242   1.046       .  S
N2240      H2243   1.046       .  S
N2240      H2244   1.046       .  S
C2249      C2250   1.412       .  A
C2249      C2254   1.408       .  A
C2250      C2251   1.401       .  A
C2250      N2255   1.428       .  S
C2251      C2252   1.401       .  A
C2251      H2256   1.084       .  S
C2252      C2257   1.492       .  S
C2252      C2253   1.412       .  A
C2253      C2254   1.409       .  A
C2253      N2258   1.438       .  S
C2254      H2259   1.083       .  S
N2255      H2275   1.046       .  S
N2255      H2276   1.046       .  S
C2257      C2260   1.402       .  A
C2257      C2264   1.411   1_565  A
N2258      H2273   1.046       .  S
N2258      H2274   1.045   1_565  S
C2260      C2261   1.407       .  A
C2260      H2265   1.083       .  S
C2261      C2262   1.421       .  A
C2261      N2266   1.438       .  S
C2262      C2263   1.408   1_565  A
C2263      C2264   1.406       .  A
C2263      H2267   1.083       .  S
C2264      N2268   1.438       .  S
N2266      H2269   1.046       .  S
N2266      H2270   1.046       .  S
N2268      H2271   1.045       .  S
N2268      H2272   1.046       .  S
C2277      C2278   1.414       .  A
C2277      C2282   1.404   1_565  A
C2278      C2279   1.403       .  A
C2278      N2283   1.438       .  S
C2279      C2280   1.402       .  A
C2279      H2284   1.084       .  S
C2280      C2285   1.480       .  S
C2280      C2281   1.410       .  A
C2281      C2282   1.404   1_565  A
C2281      N2286   1.438   1_565  S
C2282      H2287   1.084       .  S
N2283      H2303   1.046       .  S
N2283      H2304   1.046       .  S
C2285      C2288   1.405       .  A
C2285      C2292   1.411       .  A
N2286      H2301   1.046       .  S
N2286      H2302   1.046       .  S
C2288      C2289   1.406       .  A
C2288      H2293   1.084       .  S
C2289      C2290   1.409       .  A
C2289      N2294   1.438       .  S
C2290      C2291   1.396       .  A
C2291      C2292   1.400       .  A
C2291      H2295   1.079       .  S
C2292      N2296   1.438       .  S
N2294      H2297   1.045       .  S
N2294      H2298   1.044       .  S
N2296      H2299   1.046       .  S
N2296      H2300   1.046       .  S
C2305      C2306   1.419       .  A
C2305      C2310   1.413       .  A
C2306      C2307   1.402       .  A
C2306      N2311   1.433       .  S
C2307      C2308   1.399       .  A
C2307      H2312   1.084       .  S
C2308      C2313   1.486       .  S
C2308      C2309   1.408       .  A
C2309      C2310   1.407       .  A
C2309      N2314   1.438       .  S
C2310      H2315   1.075       .  S
N2311      H2331   1.046       .  S
N2311      H2332   1.046       .  S
C2313      C2316   1.401       .  A
C2313      C2320   1.407       .  A
N2314      H2329   1.046       .  S
N2314      H2330   1.046       .  S
C2316      C2317   1.404       .  A
C2316      H2321   1.084       .  S
C2317      C2318   1.418       .  A
C2317      N2322   1.433       .  S
C2318      C2319   1.413       .  A
C2319      C2320   1.405       .  A
C2319      H2323   1.074       .  S
C2320      N2324   1.439       .  S
N2322      H2325   1.046       .  S
N2322      H2326   1.045       .  S
N2324      H2327   1.045       .  S
N2324      H2328   1.046       .  S
C2333      C2334   1.417       .  A
C2333      C2338   1.410       .  A
C2334      C2335   1.412       .  A
C2334      N2339   1.436       .  S
C2335      C2336   1.407       .  A
C2335      H2340   1.083       .  S
C2336      C2341   1.497       .  S
C2336      C2337   1.411       .  A
C2337      C2338   1.403       .  A
C2337      N2342   1.439       .  S
C2338      H2343   1.082       .  S
N2339      H2359   1.044       .  S
N2339      H2360   1.047       .  S
C2341      C2344   1.403       .  A
C2341      C2348   1.411       .  A
N2342      H2357   1.046       .  S
N2342      H2358   1.046       .  S
C2344      C2345   1.407       .  A
C2344      H2349   1.083       .  S
C2345      C2346   1.422       .  A
C2345      N2350   1.438       .  S
C2346      C2347   1.411       .  A
C2347      C2348   1.408       .  A
C2347      H2351   1.080       .  S
C2348      N2352   1.438       .  S
N2350      H2353   1.045       .  S
N2350      H2354   1.045       .  S
N2352      H2355   1.045       .  S
N2352      H2356   1.046       .  S
C2361      C2362   1.409       .  A
C2361      C2366   1.402       .  A
C2362      C2363   1.406       .  A
C2362      N2367   1.438       .  S
C2363      C2364   1.405       .  A
C2363      H2368   1.084       .  S
C2364      C2369   1.493       .  S
C2364      C2365   1.414       .  A
C2365      C2366   1.410       .  A
C2365      N2370   1.437       .  S
C2366      H2371   1.084       .  S
N2367      H2387   1.046       .  S
N2367      H2388   1.046       .  S
C2369      C2372   1.402       .  A
C2369      C2376   1.409       .  A
N2370      H2385   1.046       .  S
N2370      H2386   1.045       .  S
C2372      C2373   1.406       .  A
C2372      H2377   1.084       .  S
C2373      C2374   1.419       .  A
C2373      N2378   1.433       .  S
C2374      C2375   1.413       .  A
C2375      C2376   1.408       .  A
C2375      H2379   1.075       .  S
C2376      N2380   1.438       .  S
N2378      H2381   1.046       .  S
N2378      H2382   1.046       .  S
N2380      H2383   1.045       .  S
N2380      H2384   1.046       .  S
C2389      C2390   1.418       .  A
C2389      C2394   1.409       .  A
C2390      C2391   1.406       .  A
C2390      N2395   1.438       .  S
C2391      C2392   1.403       .  A
C2391      H2396   1.084       .  S
C2392      C2397   1.487       .  S
C2392      C2393   1.409       .  A
C2393      C2394   1.404       .  A
C2393      N2398   1.438       .  S
C2394      H2399   1.083       .  S
N2395      H2415   1.046       .  S
N2395      H2416   1.046       .  S
C2397      C2400   1.404       .  A
C2397      C2404   1.411       .  A
N2398      H2413   1.046       .  S
N2398      H2414   1.046       .  S
C2400      C2401   1.402       .  A
C2400      H2405   1.084       .  S
C2401      C2402   1.417       .  A
C2401      N2406   1.439       .  S
C2402      C2403   1.403       .  A
C2403      C2404   1.404       .  A
C2403      H2407   1.084       .  S
C2404      N2408   1.438       .  S
N2406      H2409   1.046       .  S
N2406      H2410   1.041       .  S
N2408      H2411   1.046       .  S
N2408      H2412   1.046       .  S
C2417      C2418   1.420       .  A
C2417      C2422   1.408       .  A
C2418      C2419   1.405       .  A
C2418      N2423   1.438       .  S
C2419      C2420   1.400       .  A
C2419      H2424   1.084       .  S
C2420      C2425   1.485       .  S
C2420      C2421   1.409       .  A
C2421      C2422   1.408       .  A
C2421      N2426   1.438       .  S
C2422      H2427   1.083       .  S
N2423      H2443   1.046       .  S
N2423      H2444   1.046       .  S
C2425      C2428   1.403       .  A
C2425      C2432   1.411       .  A
N2426      H2441   1.046       .  S
N2426      H2442   1.046       .  S
C2428      C2429   1.407       .  A
C2428      H2433   1.084       .  S
C2429      C2430   1.413       .  A
C2429      N2434   1.438       .  S
C2430      C2431   1.403       .  A
C2431      C2432   1.405       .  A
C2431      H2435   1.084       .  S
C2432      N2436   1.438       .  S
N2434      H2437   1.046       .  S
N2434      H2438   1.045       .  S
N2436      H2439   1.046       .  S
N2436      H2440   1.046       .  S
C2445      C2446   1.413       .  A
C2445      C2450   1.405       .  A
C2446      C2447   1.409       .  A
C2446      N2451   1.438       .  S
C2447      C2448   1.403       .  A
C2447      H2452   1.084       .  S
C2448      C2453   1.479       .  S
C2448      C2449   1.407       .  A
C2449      C2450   1.404       .  A
C2449      N2454   1.438       .  S
C2450      H2455   1.084       .  S
N2451      H2471   1.046       .  S
N2451      H2472   1.046       .  S
C2453      C2456   1.400       .  A
C2453      C2460   1.409       .  A
N2454      H2469   1.046       .  S
N2454      H2470   1.046       .  S
C2456      C2457   1.404       .  A
C2456      H2461   1.084       .  S
C2457      C2458   1.412       .  A
C2457      N2462   1.438       .  S
C2458      C2459   1.403       .  A
C2459      C2460   1.407       .  A
C2459      H2463   1.084       .  S
C2460      N2464   1.437       .  S
N2462      H2465   1.046       .  S
N2462      H2466   1.046       .  S
N2464      H2467   1.046       .  S
N2464      H2468   1.045       .  S
C2473      C2474   1.416       .  A
C2473      C2478   1.405       .  A
C2474      C2475   1.403       .  A
C2474      N2479   1.438       .  S
C2475      C2476   1.398       .  A
C2475      H2480   1.084       .  S
C2476      C2481   1.474       .  S
C2476      C2477   1.409       .  A
C2477      C2478   1.406       .  A
C2477      N2482   1.438       .  S
C2478      H2483   1.084       .  S
N2479      H2499   1.046       .  S
N2479      H2500   1.046       .  S
C2481      C2484   1.399       .  A
C2481      C2488   1.409       .  A
N2482      H2497   1.046       .  S
N2482      H2498   1.045       .  S
C2484      C2485   1.400       .  A
C2484      H2489   1.084       .  S
C2485      C2486   1.410       .  A
C2485      N2490   1.433       .  S
C2486      C2487   1.405       .  A
C2487      C2488   1.407       .  A
C2487      H2491   1.083       .  S
C2488      N2492   1.438       .  S
N2490      H2493   1.045       .  S
N2490      H2494   1.046       .  S
N2492      H2495   1.046       .  S
N2492      H2496   1.045       .  S
C2501      C2502   1.412       .  A
C2501      C2506   1.403       .  A
C2502      C2503   1.402       .  A
C2502      N2507   1.433       .  S
C2503      C2504   1.401       .  A
C2503      H2508   1.084       .  S
C2504      C2509   1.490       .  S
C2504      C2505   1.413       .  A
C2505      C2506   1.413       .  A
C2505      N2510   1.437       .  S
C2506      H2511   1.083       .  S
N2507      H2527   1.046       .  S
N2507      H2528   1.045       .  S
C2509      C2512   1.401       .  A
C2509      C2516   1.407       .  A
N2510      H2525   1.046       .  S
N2510      H2526   1.046       .  S
C2512      C2513   1.407       .  A
C2512      H2517   1.084       .  S
C2513      C2514   1.418       .  A
C2513      N2518   1.433       .  S
C2514      C2515   1.416       .  A
C2515      C2516   1.409       .  A
C2515      H2519   1.074       .  S
C2516      N2520   1.438       .  S
N2518      H2521   1.046       .  S
N2518      H2522   1.046       .  S
N2520      H2523   1.046       .  S
N2520      H2524   1.046       .  S
C2529      C2530   1.408   1_655  A
C2529      C2534   1.400       .  A
C2530      C2531   1.407       .  A
C2530      N2535   1.437       .  S
C2531      C2532   1.403       .  A
C2531      H2536   1.084       .  S
C2532      C2537   1.479       .  S
C2532      C2533   1.409   1_455  A
C2533      C2534   1.405       .  A
C2533      N2538   1.437       .  S
C2534      H2539   1.083       .  S
N2535      H2555   1.046       .  S
N2535      H2556   1.046       .  S
C2537      C2540   1.397   1_455  A
C2537      C2544   1.409       .  A
N2538      H2553   1.046       .  S
N2538      H2554   1.045       .  S
C2540      C2541   1.401       .  A
C2540      H2545   1.084       .  S
C2541      C2542   1.418   1_655  A
C2541      N2546   1.433       .  S
C2542      C2543   1.409       .  A
C2543      C2544   1.410       .  A
C2543      H2547   1.083       .  S
C2544      N2548   1.438       .  S
N2546      H2549   1.046       .  S
N2546      H2550   1.046       .  S
N2548      H2551   1.046       .  S
N2548      H2552   1.045       .  S
C2557      C2558   1.412       .  A
C2557      C2562   1.406       .  A
C2558      C2559   1.410       .  A
C2558      N2563   1.437       .  S
C2559      C2560   1.404       .  A
C2559      H2564   1.084       .  S
C2560      C2565   1.479       .  S
C2560      C2561   1.406       .  A
C2561      C2562   1.402       .  A
C2561      N2566   1.438       .  S
C2562      H2567   1.083       .  S
N2563      H2583   1.045       .  S
N2563      H2584   1.046       .  S
C2565      C2568   1.397       .  A
C2565      C2572   1.412       .  A
N2566      H2581   1.046       .  S
N2566      H2582   1.045       .  S
C2568      C2569   1.400       .  A
C2568      H2573   1.084       .  S
C2569      C2570   1.414       .  A
C2569      N2574   1.433       .  S
C2570      C2571   1.404       .  A
C2571      C2572   1.411       .  A
C2571      H2575   1.083       .  S
C2572      N2576   1.438       .  S
N2574      H2577   1.046       .  S
N2574      H2578   1.046       .  S
N2576      H2579   1.046       .  S
N2576      H2580   1.045       .  S
C2585      C2586   1.415       .  A
C2585      C2590   1.407       .  A
C2586      C2587   1.405       .  A
C2586      N2591   1.438       .  S
C2587      C2588   1.400       .  A
C2587      H2592   1.084       .  S
C2588      C2593   1.481       .  S
C2588      C2589   1.409       .  A
C2589      C2590   1.408       .  A
C2589      N2594   1.438       .  S
C2590      H2595   1.084       .  S
N2591      H2611   1.046       .  S
N2591      H2612   1.046       .  S
C2593      C2596   1.402       .  A
C2593      C2600   1.409       .  A
N2594      H2609   1.046       .  S
N2594      H2610   1.046       .  S
C2596      C2597   1.405       .  A
C2596      H2601   1.084       .  S
C2597      C2598   1.412       .  A
C2597      N2602   1.432       .  S
C2598      C2599   1.404       .  A
C2599      C2600   1.405       .  A
C2599      H2603   1.083       .  S
C2600      N2604   1.438       .  S
N2602      H2605   1.046       .  S
N2602      H2606   1.046       .  S
N2604      H2607   1.046       .  S
N2604      H2608   1.046       .  S
C2613      C2614   1.415       .  A
C2613      C2618   1.406       .  A
C2614      C2615   1.406       .  A
C2614      N2619   1.438       .  S
C2615      C2616   1.402       .  A
C2615      H2620   1.084       .  S
C2616      C2621   1.481       .  S
C2616      C2617   1.408       .  A
C2617      C2618   1.403       .  A
C2617      N2622   1.438       .  S
C2618      H2623   1.083       .  S
N2619      H2639   1.046       .  S
N2619      H2640   1.046       .  S
C2621      C2624   1.402       .  A
C2621      C2628   1.410       .  A
N2622      H2637   1.046       .  S
N2622      H2638   1.046       .  S
C2624      C2625   1.403       .  A
C2624      H2629   1.084       .  S
C2625      C2626   1.411       .  A
C2625      N2630   1.437       .  S
C2626      C2627   1.403       .  A
C2627      C2628   1.405       .  A
C2627      H2631   1.084       .  S
C2628      N2632   1.438       .  S
N2630      H2633   1.046       .  S
N2630      H2634   1.044       .  S
N2632      H2635   1.046       .  S
N2632      H2636   1.046       .  S
C2641      C2642   1.420       .  A
C2641      C2646   1.407       .  A
C2642      C2643   1.407       .  A
C2642      N2647   1.438       .  S
C2643      C2644   1.399       .  A
C2643      H2648   1.084       .  S
C2644      C2649   1.483       .  S
C2644      C2645   1.408       .  A
C2645      C2646   1.409       .  A
C2645      N2650   1.437       .  S
C2646      H2651   1.083       .  S
N2647      H2667   1.046       .  S
N2647      H2668   1.046       .  S
C2649      C2652   1.403       .  A
C2649      C2656   1.409       .  A
N2650      H2665   1.046       .  S
N2650      H2666   1.046       .  S
C2652      C2653   1.408       .  A
C2652      H2657   1.084       .  S
C2653      C2654   1.408       .  A
C2653      N2658   1.437       .  S
C2654      C2655   1.402       .  A
C2655      C2656   1.407       .  A
C2655      H2659   1.082       .  S
C2656      N2660   1.437       .  S
N2658      H2661   1.046       .  S
N2658      H2662   1.045       .  S
N2660      H2663   1.046       .  S
N2660      H2664   1.045       .  S
C2669      C2670   1.418       .  A
C2669      C2674   1.411       .  A
C2670      C2671   1.409       .  A
C2670      N2675   1.437       .  S
C2671      C2672   1.401       .  A
C2671      H2676   1.084       .  S
C2672      C2677   1.477       .  S
C2672      C2673   1.404       .  A
C2673      C2674   1.403       .  A
C2673      N2678   1.438       .  S
C2674      H2679   1.083       .  S
N2675      H2695   1.045       .  S
N2675      H2696   1.046       .  S
C2677      C2680   1.401       .  A
C2677      C2684   1.411       .  A
N2678      H2693   1.046       .  S
N2678      H2694   1.045       .  S
C2680      C2681   1.401       .  A
C2680      H2685   1.084       .  S
C2681      C2682   1.404       .  A
C2681      N2686   1.432       .  S
C2682      C2683   1.402       .  A
C2683      C2684   1.408       .  A
C2683      H2687   1.084       .  S
C2684      N2688   1.437       .  S
N2686      H2689   1.045       .  S
N2686      H2690   1.046       .  S
N2688      H2691   1.046       .  S
N2688      H2692   1.045       .  S
C2697      C2698   1.415       .  A
C2697      C2702   1.405       .  A
C2698      C2699   1.407       .  A
C2698      N2703   1.438       .  S
C2699      C2700   1.400       .  A
C2699      H2704   1.084       .  S
C2700      C2705   1.482       .  S
C2700      C2701   1.410       .  A
C2701      C2702   1.408       .  A
C2701      N2706   1.438       .  S
C2702      H2707   1.084       .  S
N2703      H2723   1.046       .  S
N2703      H2724   1.046       .  S
C2705      C2708   1.404       .  A
C2705      C2712   1.407       .  A
N2706      H2721   1.046       .  S
N2706      H2722   1.045       .  S
C2708      C2709   1.410       .  A
C2708      H2713   1.084       .  S
C2709      C2710   1.412       .  A
C2709      N2714   1.437       .  S
C2710      C2711   1.404       .  A
C2711      C2712   1.404       .  A
C2711      H2715   1.081       .  S
C2712      N2716   1.438       .  S
N2714      H2717   1.046       .  S
N2714      H2718   1.045       .  S
N2716      H2719   1.046       .  S
N2716      H2720   1.045       .  S
C2725      C2726   1.410       .  A
C2725      C2730   1.404       .  A
C2726      C2727   1.405       .  A
C2726      N2731   1.432       .  S
C2727      C2728   1.405       .  A
C2727      H2732   1.084       .  S
C2728      C2733   1.492       .  S
C2728      C2729   1.413       .  A
C2729      C2730   1.406       .  A
C2729      N2734   1.438       .  S
C2730      H2735   1.084       .  S
N2731      H2751   1.045       .  S
N2731      H2752   1.046       .  S
C2733      C2736   1.403       .  A
C2733      C2740   1.411       .  A
N2734      H2749   1.046       .  S
N2734      H2750   1.046       .  S
C2736      C2737   1.407       .  A
C2736      H2741   1.084       .  S
C2737      C2738   1.419       .  A
C2737      N2742   1.438       .  S
C2738      C2739   1.409       .  A
C2739      C2740   1.407       .  A
C2739      H2743   1.083       .  S
C2740      N2744   1.438       .  S
N2742      H2745   1.046       .  S
N2742      H2746   1.046       .  S
N2744      H2747   1.046       .  S
N2744      H2748   1.045       .  S
C2753      C2754   1.420       .  A
C2753      C2758   1.413       .  A
C2754      C2755   1.409       .  A
C2754      N2759   1.433       .  S
C2755      C2756   1.402       .  A
C2755      H2760   1.084       .  S
C2756      C2761   1.496       .  S
C2756      C2757   1.411       .  A
C2757      C2758   1.409       .  A
C2757      N2762   1.439       .  S
C2758      H2763   1.075       .  S
N2759      H2779   1.046       .  S
N2759      H2780   1.046       .  S
C2761      C2764   1.404       .  A
C2761      C2768   1.415       .  A
N2762      H2777   1.045       .  S
N2762      H2778   1.046       .  S
C2764      C2765   1.407       .  A
C2764      H2769   1.084       .  S
C2765      C2766   1.411       .  A
C2765      N2770   1.438       .  S
C2766      C2767   1.403       .  A
C2767      C2768   1.414       .  A
C2767      H2771   1.083       .  S
C2768      N2772   1.437       .  S
N2770      H2773   1.046       .  S
N2770      H2774   1.045       .  S
N2772      H2775   1.046       .  S
N2772      H2776   1.046       .  S
C2781      C2782   1.413       .  A
C2781      C2786   1.402       .  A
C2782      C2783   1.401       .  A
C2782      N2787   1.433       .  S
C2783      C2784   1.405       .  A
C2783      H2788   1.084       .  S
C2784      C2789   1.491       .  S
C2784      C2785   1.413       .  A
C2785      C2786   1.407       .  A
C2785      N2790   1.438       .  S
C2786      H2791   1.084       .  S
N2787      H2807   1.045       .  S
N2787      H2808   1.044       .  S
C2789      C2792   1.404       .  A
C2789      C2796   1.411       .  A
N2790      H2805   1.046       .  S
N2790      H2806   1.046       .  S
C2792      C2793   1.408       .  A
C2792      H2797   1.084       .  S
C2793      C2794   1.416       .  A
C2793      N2798   1.438       .  S
C2794      C2795   1.407       .  A
C2795      C2796   1.407       .  A
C2795      H2799   1.083       .  S
C2796      N2800   1.438       .  S
N2798      H2801   1.046       .  S
N2798      H2802   1.046       .  S
N2800      H2803   1.046       .  S
N2800      H2804   1.046       .  S
C2809      C2810   1.415       .  A
C2809      C2814   1.409       .  A
C2810      C2811   1.403       .  A
C2810      N2815   1.432       .  S
C2811      C2812   1.402       .  A
C2811      H2816   1.084       .  S
C2812      C2817   1.489       .  S
C2812      C2813   1.411       .  A
C2813      C2814   1.408       .  A
C2813      N2818   1.438       .  S
C2814      H2819   1.083       .  S
N2815      H2835   1.046       .  S
N2815      H2836   1.046       .  S
C2817      C2820   1.403       .  A
C2817      C2824   1.414       .  A
N2818      H2833   1.046       .  S
N2818      H2834   1.046       .  S
C2820      C2821   1.402       .  A
C2820      H2825   1.084       .  S
C2821      C2822   1.410       .  A
C2821      N2826   1.433       .  S
C2822      C2823   1.403       .  A
C2823      C2824   1.408       .  A
C2823      H2827   1.084       .  S
C2824      N2828   1.437       .  S
N2826      H2829   1.045       .  S
N2826      H2830   1.046       .  S
N2828      H2831   1.046       .  S
N2828      H2832   1.046       .  S
C2837      C2838   1.424       .  A
C2837      C2842   1.413       .  A
C2838      C2839   1.413       .  A
C2838      N2843   1.438       .  S
C2839      C2840   1.401       .  A
C2839      H2844   1.083       .  S
C2840      C2845   1.492       .  S
C2840      C2841   1.407       .  A
C2841      C2842   1.405       .  A
C2841      N2846   1.439       .  S
C2842      H2847   1.077       .  S
N2843      H2863   1.045       .  S
N2843      H2864   1.046       .  S
C2845      C2848   1.402       .  A
C2845      C2852   1.412       .  A
N2846      H2861   1.045       .  S
N2846      H2862   1.046       .  S
C2848      C2849   1.406       .  A
C2848      H2853   1.084       .  S
C2849      C2850   1.414       .  A
C2849      N2854   1.438       .  S
C2850      C2851   1.405       .  A
C2851      C2852   1.412       .  A
C2851      H2855   1.083       .  S
C2852      N2856   1.437       .  S
N2854      H2857   1.046       .  S
N2854      H2858   1.046       .  S
N2856      H2859   1.046       .  S
N2856      H2860   1.046       .  S
C2865      C2866   1.413       .  A
C2865      C2870   1.403       .  A
C2866      C2867   1.406       .  A
C2866      N2871   1.438       .  S
C2867      C2868   1.402       .  A
C2867      H2872   1.084       .  S
C2868      C2873   1.473       .  S
C2868      C2869   1.405       .  A
C2869      C2870   1.401       .  A
C2869      N2874   1.438       .  S
C2870      H2875   1.084       .  S
N2871      H2891   1.045       .  S
N2871      H2892   1.046       .  S
C2873      C2876   1.400       .  A
C2873      C2880   1.407       .  A
N2874      H2889   1.046       .  S
N2874      H2890   1.045       .  S
C2876      C2877   1.405       .  A
C2876      H2881   1.084       .  S
C2877      C2878   1.413       .  A
C2877      N2882   1.438       .  S
C2878      C2879   1.404       .  A
C2879      C2880   1.402       .  A
C2879      H2883   1.084       .  S
C2880      N2884   1.438       .  S
N2882      H2885   1.046       .  S
N2882      H2886   1.046       .  S
N2884      H2887   1.046       .  S
N2884      H2888   1.045       .  S
C2893      C2894   1.412       .  A
C2893      C2898   1.404       .  A
C2894      C2895   1.401       .  A
C2894      N2899   1.433       .  S
C2895      C2896   1.399       .  A
C2895      H2900   1.084       .  S
C2896      C2901   1.477       .  S
C2896      C2897   1.410       .  A
C2897      C2898   1.408       .  A
C2897      N2902   1.438       .  S
C2898      H2903   1.084       .  S
N2899      H2919   1.046       .  S
N2899      H2920   1.046       .  S
C2901      C2904   1.400       .  A
C2901      C2908   1.408       .  A
N2902      H2917   1.046       .  S
N2902      H2918   1.045       .  S
C2904      C2905   1.405       .  A
C2904      H2909   1.084       .  S
C2905      C2906   1.414       .  A
C2905      N2910   1.438       .  S
C2906      C2907   1.406       .  A
C2907      C2908   1.406       .  A
C2907      H2911   1.084       .  S
C2908      N2912   1.438       .  S
N2910      H2913   1.046       .  S
N2910      H2914   1.046       .  S
N2912      H2915   1.046       .  S
N2912      H2916   1.045       .  S
C2921      C2922   1.415       .  A
C2921      C2926   1.404       .  A
C2922      C2923   1.402       .  A
C2922      N2927   1.432       .  S
C2923      C2924   1.398       .  A
C2923      H2928   1.084       .  S
C2924      C2929   1.478       .  S
C2924      C2925   1.409       .  A
C2925      C2926   1.406       .  A
C2925      N2930   1.437       .  S
C2926      H2931   1.083       .  S
N2927      H2947   1.045       .  S
N2927      H2948   1.046       .  S
C2929      C2932   1.398       .  A
C2929      C2936   1.409       .  A
N2930      H2945   1.046       .  S
N2930      H2946   1.046       .  S
C2932      C2933   1.404       .  A
C2932      H2937   1.084       .  S
C2933      C2934   1.416       .  A
C2933      N2938   1.438       .  S
C2934      C2935   1.405       .  A
C2935      C2936   1.408       .  A
C2935      H2939   1.084       .  S
C2936      N2940   1.438       .  S
N2938      H2941   1.046       .  S
N2938      H2942   1.046       .  S
N2940      H2943   1.046       .  S
N2940      H2944   1.046       .  S
C2949      C2950   1.420       .  A
C2949      C2954   1.413       .  A
C2950      C2951   1.407       .  A
C2950      N2955   1.433       .  S
C2951      C2952   1.399       .  A
C2951      H2956   1.084       .  S
C2952      C2957   1.490       .  S
C2952      C2953   1.409       .  A
C2953      C2954   1.409       .  A
C2953      N2958   1.438       .  S
C2954      H2959   1.075       .  S
N2955      H2975   1.046       .  S
N2955      H2976   1.046       .  S
C2957      C2960   1.404       .  A
C2957      C2964   1.412       .  A
N2958      H2973   1.045       .  S
N2958      H2974   1.046       .  S
C2960      C2961   1.408       .  A
C2960      H2965   1.084       .  S
C2961      C2962   1.412       .  A
C2961      N2966   1.438       .  S
C2962      C2963   1.401       .  A
C2963      C2964   1.410       .  A
C2963      H2967   1.080       .  S
C2964      N2968   1.437       .  S
N2966      H2969   1.046       .  S
N2966      H2970   1.045       .  S
N2968      H2971   1.046       .  S
N2968      H2972   1.046       .  S
C2977      C2978   1.413       .  A
C2977      C2982   1.405   1_556  A
C2978      C2979   1.405       .  A
C2978      N2983   1.436       .  S
C2979      C2980   1.400       .  A
C2979      H2984   1.084       .  S
C2980      C2985   1.476       .  S
C2980      C2981   1.407   1_556  A
C2981      C2982   1.403       .  A
C2981      N2986   1.438       .  S
C2982      H2987   1.083       .  S
N2983      H3003   1.044       .  S
N2983      H3004   1.046       .  S
C2985      C2988   1.398       .  A
C2985      C2992   1.407       .  A
N2986      H3001   1.046       .  S
N2986      H3002   1.046       .  S
C2988      C2989   1.403       .  A
C2988      H2993   1.084   1_556  S
C2989      C2990   1.417       .  A
C2989      N2994   1.438   1_556  S
C2990      C2991   1.407       .  A
C2991      C2992   1.406       .  A
C2991      H2995   1.083       .  S
C2992      N2996   1.438       .  S
N2994      H2997   1.046       .  S
N2994      H2998   1.046   1_554  S
N2996      H2999   1.046       .  S
N2996      H3000   1.046       .  S
C3005      C3006   1.408       .  A
C3005      C3010   1.402       .  A
C3006      C3007   1.407       .  A
C3006      N3011   1.437       .  S
C3007      C3008   1.403       .  A
C3007      H3012   1.084       .  S
C3008      C3013   1.484       .  S
C3008      C3009   1.410       .  A
C3009      C3010   1.408       .  A
C3009      N3014   1.437       .  S
C3010      H3015   1.083       .  S
N3011      H3031   1.046       .  S
N3011      H3032   1.045       .  S
C3013      C3016   1.398       .  A
C3013      C3020   1.408       .  A
N3014      H3029   1.046       .  S
N3014      H3030   1.046       .  S
C3016      C3017   1.408       .  A
C3016      H3021   1.084       .  S
C3017      C3018   1.424       .  A
C3017      N3022   1.439       .  S
C3018      C3019   1.408       .  A
C3019      C3020   1.408       .  A
C3019      H3023   1.083       .  S
C3020      N3024   1.438       .  S
N3022      H3025   1.046       .  S
N3022      H3026   1.046       .  S
N3024      H3027   1.045       .  S
N3024      H3028   1.046       .  S
C3033      C3034   1.422       .  A
C3033      C3038   1.414       .  A
C3034      C3035   1.408       .  A
C3034      N3039   1.438       .  S
C3035      C3036   1.403       .  A
C3035      H3040   1.083       .  S
C3036      C3041   1.498       .  S
C3036      C3037   1.410       .  A
C3037      C3038   1.410       .  A
C3037      N3042   1.438       .  S
C3038      H3043   1.079       .  S
N3039      H3059   1.045       .  S
N3039      H3060   1.046       .  S
C3041      C3044   1.409       .  A
C3041      C3048   1.412       .  A
N3042      H3057   1.045       .  S
N3042      H3058   1.046       .  S
C3044      C3045   1.412       .  A
C3044      H3049   1.083       .  S
C3045      C3046   1.411       .  A
C3045      N3050   1.430       .  S
C3046      C3047   1.407       .  A
C3047      C3048   1.403       .  A
C3047      H3051   1.083       .  S
C3048      N3052   1.439       .  S
N3050      H3053   1.045       .  S
N3050      H3054   1.046       .  S
N3052      H3055   1.046       .  S
N3052      H3056   1.046       .  S
C3061      C3062   1.416   1_556  A
C3061      C3066   1.406       .  A
C3062      C3063   1.407       .  A
C3062      N3067   1.437       .  S
C3063      C3064   1.402   1_554  A
C3063      H3068   1.084       .  S
C3064      C3069   1.485       .  S
C3064      C3065   1.409       .  A
C3065      C3066   1.404       .  A
C3065      N3070   1.438       .  S
C3066      H3071   1.081       .  S
N3067      H3087   1.046       .  S
N3067      H3088   1.046       .  S
C3069      C3072   1.402       .  A
C3069      C3076   1.409   1_556  A
N3070      H3085   1.046       .  S
N3070      H3086   1.046       .  S
C3072      C3073   1.406       .  A
C3072      H3077   1.084       .  S
C3073      C3074   1.418       .  A
C3073      N3078   1.438       .  S
C3074      C3075   1.407   1_556  A
C3075      C3076   1.405       .  A
C3075      H3079   1.083       .  S
C3076      N3080   1.438       .  S
N3078      H3081   1.046       .  S
N3078      H3082   1.046       .  S
N3080      H3083   1.046       .  S
N3080      H3084   1.046       .  S
C3089      C3090   1.419   1_556  A
C3089      C3094   1.407   1_455  A
C3090      C3091   1.405       .  A
C3090      N3095   1.438       .  S
C3091      C3092   1.400   1_554  A
C3091      H3096   1.084       .  S
C3092      C3097   1.485       .  S
C3092      C3093   1.410   1_455  A
C3093      C3094   1.406       .  A
C3093      N3098   1.438       .  S
C3094      H3099   1.083       .  S
N3095      H3115   1.046       .  S
N3095      H3116   1.046       .  S
C3097      C3100   1.402   1_455  A
C3097      C3104   1.411       .  A
N3098      H3113   1.046       .  S
N3098      H3114   1.046       .  S
C3100      C3101   1.405       .  A
C3100      H3105   1.084       .  S
C3101      C3102   1.413   1_655  A
C3101      N3106   1.438       .  S
C3102      C3103   1.404       .  A
C3103      C3104   1.406       .  A
C3103      H3107   1.084       .  S
C3104      N3108   1.438       .  S
N3106      H3109   1.046       .  S
N3106      H3110   1.045   1_556  S
N3108      H3111   1.046       .  S
N3108      H3112   1.046       .  S
C3117      C3118   1.411   1_455  A
C3117      C3122   1.405       .  A
C3118      C3119   1.405       .  A
C3118      N3123   1.438       .  S
C3119      C3120   1.401   1_655  A
C3119      H3124   1.084       .  S
C3120      C3125   1.476       .  S
C3120      C3121   1.407       .  A
C3121      C3122   1.405       .  A
C3121      N3126   1.437       .  S
C3122      H3127   1.084       .  S
N3123      H3143   1.046       .  S
N3123      H3144   1.046       .  S
C3125      C3128   1.400       .  A
C3125      C3132   1.406       .  A
N3126      H3141   1.046       .  S
N3126      H3142   1.046       .  S
C3128      C3129   1.405       .  A
C3128      H3133   1.084       .  S
C3129      C3130   1.414       .  A
C3129      N3134   1.437       .  S
C3130      C3131   1.407       .  A
C3131      C3132   1.404       .  A
C3131      H3135   1.083       .  S
C3132      N3136   1.438       .  S
N3134      H3137   1.046       .  S
N3134      H3138   1.045       .  S
N3136      H3139   1.046       .  S
N3136      H3140   1.045       .  S
C3145      C3146   1.425       .  A
C3145      C3150   1.414       .  A
C3146      C3147   1.410       .  A
C3146      N3151   1.439       .  S
C3147      C3148   1.401       .  A
C3147      H3152   1.084       .  S
C3148      C3153   1.493       .  S
C3148      C3149   1.408       .  A
C3149      C3150   1.408       .  A
C3149      N3154   1.438       .  S
C3150      H3155   1.075       .  S
N3151      H3171   1.044       .  S
N3151      H3172   1.046       .  S
C3153      C3156   1.401       .  A
C3153      C3160   1.407       .  A
N3154      H3169   1.045       .  S
N3154      H3170   1.046       .  S
C3156      C3157   1.410       .  A
C3156      H3161   1.084       .  S
C3157      C3158   1.424       .  A
C3157      N3162   1.439       .  S
C3158      C3159   1.416       .  A
C3159      C3160   1.408       .  A
C3159      H3163   1.075       .  S
C3160      N3164   1.439       .  S
N3162      H3165   1.046       .  S
N3162      H3166   1.044       .  S
N3164      H3167   1.046       .  S
N3164      H3168   1.046       .  S
C3173      C3174   1.419       .  A
C3173      C3178   1.414       .  A
C3174      C3175   1.407       .  A
C3174      N3179   1.433       .  S
C3175      C3176   1.401       .  A
C3175      H3180   1.084       .  S
C3176      C3181   1.491       .  S
C3176      C3177   1.408       .  A
C3177      C3178   1.409       .  A
C3177      N3182   1.438       .  S
C3178      H3183   1.074       .  S
N3179      H3199   1.046       .  S
N3179      H3200   1.045       .  S
C3181      C3184   1.402       .  A
C3181      C3188   1.412       .  A
N3182      H3197   1.045       .  S
N3182      H3198   1.046       .  S
C3184      C3185   1.406       .  A
C3184      H3189   1.084       .  S
C3185      C3186   1.414       .  A
C3185      N3190   1.438       .  S
C3186      C3187   1.404       .  A
C3187      C3188   1.412       .  A
C3187      H3191   1.081       .  S
C3188      N3192   1.437       .  S
N3190      H3193   1.046       .  S
N3190      H3194   1.046       .  S
N3192      H3195   1.046       .  S
N3192      H3196   1.046       .  S
C3201      C3202   1.411       .  A
C3201      C3206   1.405       .  A
C3202      C3203   1.402       .  A
C3202      N3207   1.432       .  S
C3203      C3204   1.400       .  A
C3203      H3208   1.084       .  S
C3204      C3209   1.475   1_545  S
C3204      C3205   1.407   1_545  A
C3205      C3206   1.405   1_565  A
C3205      N3210   1.438       .  S
C3206      H3211   1.084   1_545  S
N3207      H3227   1.045   1_545  S
N3207      H3228   1.046       .  S
C3209      C3212   1.401       .  A
C3209      C3216   1.406   1_565  A
N3210      H3225   1.046       .  S
N3210      H3226   1.045   1_565  S
C3212      C3213   1.406       .  A
C3212      H3217   1.084       .  S
C3213      C3214   1.413       .  A
C3213      N3218   1.438       .  S
C3214      C3215   1.405   1_565  A
C3215      C3216   1.403       .  A
C3215      H3219   1.084       .  S
C3216      N3220   1.438       .  S
N3218      H3221   1.046       .  S
N3218      H3222   1.045       .  S
N3220      H3223   1.046       .  S
N3220      H3224   1.045       .  S
C3229      C3230   1.410       .  A
C3229      C3234   1.403   1_565  A
C3230      C3231   1.403       .  A
C3230      N3235   1.433       .  S
C3231      C3232   1.402       .  A
C3231      H3236   1.084       .  S
C3232      C3237   1.483       .  S
C3232      C3233   1.411   1_565  A
C3233      C3234   1.407       .  A
C3233      N3238   1.438       .  S
C3234      H3239   1.084       .  S
N3235      H3255   1.046       .  S
N3235      H3256   1.045       .  S
C3237      C3240   1.399       .  A
C3237      C3244   1.409       .  A
N3238      H3253   1.046       .  S
N3238      H3254   1.046       .  S
C3240      C3241   1.406       .  A
C3240      H3245   1.084   1_565  S
C3241      C3242   1.420       .  A
C3241      N3246   1.438   1_565  S
C3242      C3243   1.408       .  A
C3243      C3244   1.408       .  A
C3243      H3247   1.083       .  S
C3244      N3248   1.438       .  S
N3246      H3249   1.046       .  S
N3246      H3250   1.046   1_545  S
N3248      H3251   1.045       .  S
N3248      H3252   1.046       .  S
C3257      C3258   1.411       .  A
C3257      C3262   1.404       .  A
C3258      C3259   1.403       .  A
C3258      N3263   1.433       .  S
C3259      C3260   1.400       .  A
C3259      H3264   1.084       .  S
C3260      C3265   1.480       .  S
C3260      C3261   1.410       .  A
C3261      C3262   1.408       .  A
C3261      N3266   1.438       .  S
C3262      H3267   1.083       .  S
N3263      H3283   1.045       .  S
N3263      H3284   1.046       .  S
C3265      C3268   1.400       .  A
C3265      C3272   1.409       .  A
N3266      H3281   1.046       .  S
N3266      H3282   1.045       .  S
C3268      C3269   1.407       .  A
C3268      H3273   1.084       .  S
C3269      C3270   1.416       .  A
C3269      N3274   1.438       .  S
C3270      C3271   1.405       .  A
C3271      C3272   1.407       .  A
C3271      H3275   1.084       .  S
C3272      N3276   1.438       .  S
N3274      H3277   1.046       .  S
N3274      H3278   1.046       .  S
N3276      H3279   1.046       .  S
N3276      H3280   1.044       .  S
C3285      C3286   1.419       .  A
C3285      C3290   1.413       .  A
C3286      C3287   1.407       .  A
C3286      N3291   1.433       .  S
C3287      C3288   1.401       .  A
C3287      H3292   1.084       .  S
C3288      C3293   1.494       .  S
C3288      C3289   1.411       .  A
C3289      C3290   1.409       .  A
C3289      N3294   1.439       .  S
C3290      H3295   1.074       .  S
N3291      H3311   1.046       .  S
N3291      H3312   1.046   1_545  S
C3293      C3296   1.402       .  A
C3293      C3300   1.414       .  A
N3294      H3309   1.046       .  S
N3294      H3310   1.046       .  S
C3296      C3297   1.405       .  A
C3296      H3301   1.084       .  S
C3297      C3298   1.415       .  A
C3297      N3302   1.438       .  S
C3298      C3299   1.404       .  A
C3299      C3300   1.412       .  A
C3299      H3303   1.081       .  S
C3300      N3304   1.437       .  S
N3302      H3305   1.046       .  S
N3302      H3306   1.045       .  S
N3304      H3307   1.046       .  S
N3304      H3308   1.046       .  S
C3313      C3314   1.417       .  A
C3313      C3318   1.409       .  A
C3314      C3315   1.400       .  A
C3314      N3319   1.429       .  S
C3315      C3316   1.394       .  A
C3315      H3320   1.084       .  S
C3316      C3321   1.476       .  S
C3316      C3317   1.408       .  A
C3317      C3318   1.409       .  A
C3317      N3322   1.438       .  S
C3318      H3323   1.083       .  S
N3319      H3339   1.046       .  S
N3319      H3340   1.046   1_556  S
C3321      C3324   1.400       .  A
C3321      C3328   1.407   1_556  A
N3322      H3337   1.045       .  S
N3322      H3338   1.045   1_556  S
C3324      C3325   1.406       .  A
C3324      H3329   1.084       .  S
C3325      C3326   1.414       .  A
C3325      N3330   1.438       .  S
C3326      C3327   1.406   1_556  A
C3327      C3328   1.405       .  A
C3327      H3331   1.084       .  S
C3328      N3332   1.438       .  S
N3330      H3333   1.046       .  S
N3330      H3334   1.046       .  S
N3332      H3335   1.046       .  S
N3332      H3336   1.045       .  S
C3341      C3342   1.413       .  A
C3341      C3346   1.404       .  A
C3342      C3343   1.409       .  A
C3342      N3347   1.437       .  S
C3343      C3344   1.403       .  A
C3343      H3348   1.084       .  S
C3344      C3349   1.479       .  S
C3344      C3345   1.406       .  A
C3345      C3346   1.402       .  A
C3345      N3350   1.438       .  S
C3346      H3351   1.082       .  S
N3347      H3367   1.046       .  S
N3347      H3368   1.046       .  S
C3349      C3352   1.399       .  A
C3349      C3356   1.411       .  A
N3350      H3365   1.046       .  S
N3350      H3366   1.045       .  S
C3352      C3353   1.402       .  A
C3352      H3357   1.084       .  S
C3353      C3354   1.413       .  A
C3353      N3358   1.433       .  S
C3354      C3355   1.404       .  A
C3355      C3356   1.409       .  A
C3355      H3359   1.084       .  S
C3356      N3360   1.438       .  S
N3358      H3361   1.046       .  S
N3358      H3362   1.046       .  S
N3360      H3363   1.045       .  S
N3360      H3364   1.045       .  S
C3369      C3370   1.412       .  A
C3369      C3374   1.404   1_655  A
C3370      C3371   1.406       .  A
C3370      N3375   1.438       .  S
C3371      C3372   1.402   1_655  A
C3371      H3376   1.084       .  S
C3372      C3377   1.476       .  S
C3372      C3373   1.407       .  A
C3373      C3374   1.402       .  A
C3373      N3378   1.438       .  S
C3374      H3379   1.084       .  S
N3375      H3395   1.046       .  S
N3375      H3396   1.046       .  S
C3377      C3380   1.401       .  A
C3377      C3384   1.406   1_455  A
N3378      H3393   1.046       .  S
N3378      H3394   1.046       .  S
C3380      C3381   1.404       .  A
C3380      H3385   1.084       .  S
C3381      C3382   1.415       .  A
C3381      N3386   1.438       .  S
C3382      C3383   1.407   1_455  A
C3383      C3384   1.404       .  A
C3383      H3387   1.084       .  S
C3384      N3388   1.438       .  S
N3386      H3389   1.046       .  S
N3386      H3390   1.046   1_455  S
N3388      H3391   1.045       .  S
N3388      H3392   1.046   1_655  S
C3397      C3398   1.418   1_455  A
C3397      C3402   1.409       .  A
C3398      C3399   1.403       .  A
C3398      N3403   1.433       .  S
C3399      C3400   1.400   1_655  A
C3399      H3404   1.084       .  S
C3400      C3405   1.485       .  S
C3400      C3401   1.410       .  A
C3401      C3402   1.408       .  A
C3401      N3406   1.438       .  S
C3402      H3407   1.083       .  S
N3403      H3423   1.046       .  S
N3403      H3424   1.046       .  S
C3405      C3408   1.405   1_455  A
C3405      C3412   1.412       .  A
N3406      H3421   1.046       .  S
N3406      H3422   1.046       .  S
C3408      C3409   1.403       .  A
C3408      H3413   1.084       .  S
C3409      C3410   1.406       .  A
C3409      N3414   1.432       .  S
C3410      C3411   1.401   1_655  A
C3411      C3412   1.405       .  A
C3411      H3415   1.084       .  S
C3412      N3416   1.438       .  S
N3414      H3417   1.045       .  S
N3414      H3418   1.045       .  S
N3416      H3419   1.046       .  S
N3416      H3420   1.046       .  S
C3425      C3426   1.410       .  A
C3425      C3430   1.406       .  A
C3426      C3427   1.401       .  A
C3426      N3431   1.432       .  S
C3427      C3428   1.399       .  A
C3427      H3432   1.084       .  S
C3428      C3433   1.476       .  S
C3428      C3429   1.409       .  A
C3429      C3430   1.406       .  A
C3429      N3434   1.438       .  S
C3430      H3435   1.083       .  S
N3431      H3451   1.046       .  S
N3431      H3452   1.046       .  S
C3433      C3436   1.400       .  A
C3433      C3440   1.408       .  A
N3434      H3449   1.046       .  S
N3434      H3450   1.044       .  S
C3436      C3437   1.406       .  A
C3436      H3441   1.084       .  S
C3437      C3438   1.414       .  A
C3437      N3442   1.438       .  S
C3438      C3439   1.405       .  A
C3439      C3440   1.405       .  A
C3439      H3443   1.084       .  S
C3440      N3444   1.438       .  S
N3442      H3445   1.046       .  S
N3442      H3446   1.046       .  S
N3444      H3447   1.045       .  S
N3444      H3448   1.044       .  S
C3453      C3454   1.419       .  A
C3453      C3458   1.412       .  A
C3454      C3455   1.399       .  A
C3454      N3459   1.433       .  S
C3455      C3456   1.397       .  A
C3455      H3460   1.084       .  S
C3456      C3461   1.479       .  S
C3456      C3457   1.407       .  A
C3457      C3458   1.406       .  A
C3457      N3462   1.438       .  S
C3458      H3463   1.075       .  S
N3459      H3479   1.046       .  S
N3459      H3480   1.046       .  S
C3461      C3464   1.398       .  A
C3461      C3468   1.406       .  A
N3462      H3477   1.046       .  S
N3462      H3478   1.046       .  S
C3464      C3465   1.401       .  A
C3464      H3469   1.084       .  S
C3465      C3466   1.418       .  A
C3465      N3470   1.433       .  S
C3466      C3467   1.413       .  A
C3467      C3468   1.404       .  A
C3467      H3471   1.074   1_655  S
C3468      N3472   1.439       .  S
N3470      H3473   1.046       .  S
N3470      H3474   1.046       .  S
N3472      H3475   1.046   1_655  S
N3472      H3476   1.046       .  S
C3481      C3482   1.412       .  A
C3481      C3486   1.403       .  A
C3482      C3483   1.405       .  A
C3482      N3487   1.438       .  S
C3483      C3484   1.404       .  A
C3483      H3488   1.084       .  S
C3484      C3489   1.494       .  S
C3484      C3485   1.414       .  A
C3485      C3486   1.412       .  A
C3485      N3490   1.437       .  S
C3486      H3491   1.083       .  S
N3487      H3507   1.046       .  S
N3487      H3508   1.046       .  S
C3489      C3492   1.401       .  A
C3489      C3496   1.411       .  A
N3490      H3505   1.046       .  S
N3490      H3506   1.046       .  S
C3492      C3493   1.408       .  A
C3492      H3497   1.084       .  S
C3493      C3494   1.420       .  A
C3493      N3498   1.433       .  S
C3494      C3495   1.412       .  A
C3495      C3496   1.408       .  A
C3495      H3499   1.075       .  S
C3496      N3500   1.439       .  S
N3498      H3501   1.046       .  S
N3498      H3502   1.045       .  S
N3500      H3503   1.046       .  S
N3500      H3504   1.045       .  S
C3509      C3510   1.419       .  A
C3509      C3514   1.412       .  A
C3510      C3511   1.403       .  A
C3510      N3515   1.433       .  S
C3511      C3512   1.398       .  A
C3511      H3516   1.084       .  S
C3512      C3517   1.480       .  S
C3512      C3513   1.408       .  A
C3513      C3514   1.404       .  A
C3513      N3518   1.439       .  S
C3514      H3519   1.075   1_655  S
N3515      H3535   1.046       .  S
N3515      H3536   1.046       .  S
C3517      C3520   1.400       .  A
C3517      C3524   1.412       .  A
N3518      H3533   1.046       .  S
N3518      H3534   1.046       .  S
C3520      C3521   1.397       .  A
C3520      H3525   1.084       .  S
C3521      C3522   1.410       .  A
C3521      N3526   1.433       .  S
C3522      C3523   1.403       .  A
C3523      C3524   1.410       .  A
C3523      H3527   1.084       .  S
C3524      N3528   1.437       .  S
N3526      H3529   1.046       .  S
N3526      H3530   1.046       .  S
N3528      H3531   1.046       .  S
N3528      H3532   1.045       .  S
C3537      C3538   1.410       .  A
C3537      C3542   1.400       .  A
C3538      C3539   1.404       .  A
C3538      N3543   1.438       .  S
C3539      C3540   1.403       .  A
C3539      H3544   1.084       .  S
C3540      C3545   1.487       .  S
C3540      C3541   1.412       .  A
C3541      C3542   1.408       .  A
C3541      N3546   1.437       .  S
C3542      H3547   1.084       .  S
N3543      H3563   1.045       .  S
N3543      H3564   1.046       .  S
C3545      C3548   1.401       .  A
C3545      C3552   1.406       .  A
N3546      H3561   1.045       .  S
N3546      H3562   1.046       .  S
C3548      C3549   1.408       .  A
C3548      H3553   1.084       .  S
C3549      C3550   1.422       .  A
C3549      N3554   1.439       .  S
C3550      C3551   1.414       .  A
C3551      C3552   1.405       .  A
C3551      H3555   1.077       .  S
C3552      N3556   1.438       .  S
N3554      H3557   1.045       .  S
N3554      H3558   1.045       .  S
N3556      H3559   1.045       .  S
N3556      H3560   1.046       .  S
C3565      C3566   1.410       .  A
C3565      C3570   1.403   1_556  A
C3566      C3567   1.401       .  A
C3566      N3571   1.433       .  S
C3567      C3568   1.403       .  A
C3567      H3572   1.083       .  S
C3568      C3573   1.492       .  S
C3568      C3569   1.416   1_556  A
C3569      C3570   1.409       .  A
C3569      N3574   1.438       .  S
C3570      H3575   1.084       .  S
N3571      H3591   1.046       .  S
N3571      H3592   1.046       .  S
C3573      C3576   1.408       .  A
C3573      C3580   1.416       .  A
N3574      H3589   1.045       .  S
N3574      H3590   1.046       .  S
C3576      C3577   1.406       .  A
C3576      H3581   1.083   1_556  S
C3577      C3578   1.405       .  A
C3577      N3582   1.437   1_556  S
C3578      C3579   1.397       .  A
C3579      C3580   1.404       .  A
C3579      H3583   1.083       .  S
C3580      N3584   1.438       .  S
N3582      H3585   1.045       .  S
N3582      H3586   1.045   1_554  S
N3584      H3587   1.046       .  S
N3584      H3588   1.046       .  S
C3593      C3594   1.417       .  A
C3593      C3598   1.406   1_556  A
C3594      C3595   1.405       .  A
C3594      N3599   1.438       .  S
C3595      C3596   1.401       .  A
C3595      H3600   1.084       .  S
C3596      C3601   1.483       .  S
C3596      C3597   1.410   1_556  A
C3597      C3598   1.405       .  A
C3597      N3602   1.438       .  S
C3598      H3603   1.083       .  S
N3599      H3619   1.046       .  S
N3599      H3620   1.046       .  S
C3601      C3604   1.402   1_556  A
C3601      C3608   1.412       .  A
N3602      H3617   1.046       .  S
N3602      H3618   1.046   1_554  S
C3604      C3605   1.402       .  A
C3604      H3609   1.084       .  S
C3605      C3606   1.410   1_554  A
C3605      N3610   1.437       .  S
C3606      C3607   1.402       .  A
C3607      C3608   1.406       .  A
C3607      H3611   1.084       .  S
C3608      N3612   1.437       .  S
N3610      H3613   1.045       .  S
N3610      H3614   1.045       .  S
N3612      H3615   1.046       .  S
N3612      H3616   1.045       .  S
C3621      C3622   1.419   1_556  A
C3621      C3626   1.409       .  A
C3622      C3623   1.406       .  A
C3622      N3627   1.438       .  S
C3623      C3624   1.401   1_554  A
C3623      H3628   1.084       .  S
C3624      C3629   1.486       .  S
C3624      C3625   1.409       .  A
C3625      C3626   1.406       .  A
C3625      N3630   1.438       .  S
C3626      H3631   1.083       .  S
N3627      H3647   1.046       .  S
N3627      H3648   1.046       .  S
C3629      C3632   1.403       .  A
C3629      C3636   1.411   1_556  A
N3630      H3645   1.046       .  S
N3630      H3646   1.046       .  S
C3632      C3633   1.407       .  A
C3632      H3637   1.084       .  S
C3633      C3634   1.411       .  A
C3633      N3638   1.437       .  S
C3634      C3635   1.402   1_556  A
C3635      C3636   1.405       .  A
C3635      H3639   1.084       .  S
C3636      N3640   1.438       .  S
N3638      H3641   1.045       .  S
N3638      H3642   1.045       .  S
N3640      H3643   1.046       .  S
N3640      H3644   1.046       .  S
C3649      C3650   1.413       .  A
C3649      C3654   1.404       .  A
C3650      C3651   1.405       .  A
C3650      N3655   1.438       .  S
C3651      C3652   1.400       .  A
C3651      H3656   1.084       .  S
C3652      C3657   1.480       .  S
C3652      C3653   1.410       .  A
C3653      C3654   1.409       .  A
C3653      N3658   1.437       .  S
C3654      H3659   1.084       .  S
N3655      H3675   1.046       .  S
N3655      H3676   1.046       .  S
C3657      C3660   1.400       .  A
C3657      C3664   1.409       .  A
N3658      H3673   1.046       .  S
N3658      H3674   1.046       .  S
C3660      C3661   1.403       .  A
C3660      H3665   1.084       .  S
C3661      C3662   1.412       .  A
C3661      N3666   1.432       .  S
C3662      C3663   1.406       .  A
C3663      C3664   1.408       .  A
C3663      H3667   1.083       .  S
C3664      N3668   1.437       .  S
N3666      H3669   1.046       .  S
N3666      H3670   1.045       .  S
N3668      H3671   1.046       .  S
N3668      H3672   1.045       .  S
C3677      C3678   1.412       .  A
C3677      C3682   1.402       .  A
C3678      C3679   1.405       .  A
C3678      N3683   1.437       .  S
C3679      C3680   1.402       .  A
C3679      H3684   1.084       .  S
C3680      C3685   1.483   1_554  S
C3680      C3681   1.411   1_554  A
C3681      C3682   1.406   1_556  A
C3681      N3686   1.438       .  S
C3682      H3687   1.084   1_554  S
N3683      H3703   1.045       .  S
N3683      H3704   1.045       .  S
C3685      C3688   1.399   1_556  A
C3685      C3692   1.409       .  A
N3686      H3701   1.046       .  S
N3686      H3702   1.046       .  S
C3688      C3689   1.405       .  A
C3688      H3693   1.084       .  S
C3689      C3690   1.421   1_554  A
C3689      N3694   1.438       .  S
C3690      C3691   1.407       .  A
C3691      C3692   1.407       .  A
C3691      H3695   1.083       .  S
C3692      N3696   1.438       .  S
N3694      H3697   1.046       .  S
N3694      H3698   1.046       .  S
N3696      H3699   1.046       .  S
N3696      H3700   1.046       .  S
C3705      C3706   1.417       .  A
C3705      C3710   1.407   1_554  A
C3706      C3707   1.407       .  A
C3706      N3711   1.437       .  S
C3707      C3708   1.399       .  A
C3707      H3712   1.084       .  S
C3708      C3713   1.477       .  S
C3708      C3709   1.406   1_554  A
C3709      C3710   1.404       .  A
C3709      N3714   1.438       .  S
C3710      H3715   1.083       .  S
N3711      H3731   1.046       .  S
N3711      H3732   1.046       .  S
C3713      C3716   1.401       .  A
C3713      C3720   1.407   1_554  A
N3714      H3729   1.046       .  S
N3714      H3730   1.045       .  S
C3716      C3717   1.407       .  A
C3716      H3721   1.084       .  S
C3717      C3718   1.414   1_554  A
C3717      N3722   1.438       .  S
C3718      C3719   1.405       .  A
C3719      C3720   1.404       .  A
C3719      H3723   1.084       .  S
C3720      N3724   1.438       .  S
N3722      H3725   1.046       .  S
N3722      H3726   1.046   1_554  S
N3724      H3727   1.046       .  S
N3724      H3728   1.045       .  S
C3733      C3734   1.425       .  A
C3733      C3738   1.411       .  A
C3734      C3735   1.411       .  A
C3734      N3739   1.438       .  S
C3735      C3736   1.400       .  A
C3735      H3740   1.084       .  S
C3736      C3741   1.488       .  S
C3736      C3737   1.407       .  A
C3737      C3738   1.405       .  A
C3737      N3742   1.438       .  S
C3738      H3743   1.078       .  S
N3739      H3759   1.045       .  S
N3739      H3760   1.046       .  S
C3741      C3744   1.400       .  A
C3741      C3748   1.411       .  A
N3742      H3757   1.045       .  S
N3742      H3758   1.046       .  S
C3744      C3745   1.403       .  A
C3744      H3749   1.084       .  S
C3745      C3746   1.416       .  A
C3745      N3750   1.438       .  S
C3746      C3747   1.407       .  A
C3747      C3748   1.412       .  A
C3747      H3751   1.083       .  S
C3748      N3752   1.437       .  S
N3750      H3753   1.046       .  S
N3750      H3754   1.045       .  S
N3752      H3755   1.046       .  S
N3752      H3756   1.046       .  S
C3761      C3762   1.411       .  A
C3761      C3766   1.403       .  A
C3762      C3763   1.405       .  A
C3762      N3767   1.437       .  S
C3763      C3764   1.403       .  A
C3763      H3768   1.084       .  S
C3764      C3769   1.491       .  S
C3764      C3765   1.413       .  A
C3765      C3766   1.409       .  A
C3765      N3770   1.437       .  S
C3766      H3771   1.084       .  S
N3767      H3787   1.045       .  S
N3767      H3788   1.046       .  S
C3769      C3772   1.401       .  A
C3769      C3776   1.410       .  A
N3770      H3785   1.046       .  S
N3770      H3786   1.046       .  S
C3772      C3773   1.409       .  A
C3772      H3777   1.084       .  S
C3773      C3774   1.422       .  A
C3773      N3778   1.438       .  S
C3774      C3775   1.408       .  A
C3775      C3776   1.408       .  A
C3775      H3779   1.083       .  S
C3776      N3780   1.438       .  S
N3778      H3781   1.046       .  S
N3778      H3782   1.046       .  S
N3780      H3783   1.046       .  S
N3780      H3784   1.046       .  S
C3789      C3790   1.414       .  A
C3789      C3794   1.405       .  A
C3790      C3791   1.409       .  A
C3790      N3795   1.438       .  S
C3791      C3792   1.405       .  A
C3791      H3796   1.084       .  S
C3792      C3797   1.490       .  S
C3792      C3793   1.410       .  A
C3793      C3794   1.405       .  A
C3793      N3798   1.438       .  S
C3794      H3799   1.083       .  S
N3795      H3815   1.045       .  S
N3795      H3816   1.045       .  S
C3797      C3800   1.404       .  A
C3797      C3804   1.410       .  A
N3798      H3813   1.046       .  S
N3798      H3814   1.046       .  S
C3800      C3801   1.408       .  A
C3800      H3805   1.084       .  S
C3801      C3802   1.416       .  A
C3801      N3806   1.438       .  S
C3802      C3803   1.408       .  A
C3803      C3804   1.407       .  A
C3803      H3807   1.083       .  S
C3804      N3808   1.438       .  S
N3806      H3809   1.046       .  S
N3806      H3810   1.046       .  S
N3808      H3811   1.046       .  S
N3808      H3812   1.046       .  S
C3817      C3818   1.411       .  A
C3817      C3822   1.402       .  A
C3818      C3819   1.407       .  A
C3818      N3823   1.437       .  S
C3819      C3820   1.403       .  A
C3819      H3824   1.084       .  S
C3820      C3825   1.495       .  S
C3820      C3821   1.414       .  A
C3821      C3822   1.413       .  A
C3821      N3826   1.437       .  S
C3822      H3827   1.083       .  S
N3823      H3843   1.045       .  S
N3823      H3844   1.045       .  S
C3825      C3828   1.401       .  A
C3825      C3832   1.410       .  A
N3826      H3841   1.046       .  S
N3826      H3842   1.046       .  S
C3828      C3829   1.407       .  A
C3828      H3833   1.084       .  S
C3829      C3830   1.419       .  A
C3829      N3834   1.433       .  S
C3830      C3831   1.415       .  A
C3831      C3832   1.412       .  A
C3831      H3835   1.075       .  S
C3832      N3836   1.438       .  S
N3834      H3837   1.046       .  S
N3834      H3838   1.046       .  S
N3836      H3839   1.045       .  S
N3836      H3840   1.046       .  S
C3845      C3846   1.414       .  A
C3845      C3850   1.403       .  A
C3846      C3847   1.406       .  A
C3846      N3851   1.438       .  S
C3847      C3848   1.400       .  A
C3847      H3852   1.084       .  S
C3848      C3853   1.482       .  S
C3848      C3849   1.410       .  A
C3849      C3850   1.408       .  A
C3849      N3854   1.437       .  S
C3850      H3855   1.084       .  S
N3851      H3871   1.045       .  S
N3851      H3872   1.046       .  S
C3853      C3856   1.400       .  A
C3853      C3860   1.410       .  A
N3854      H3869   1.046       .  S
N3854      H3870   1.046       .  S
C3856      C3857   1.403       .  A
C3856      H3861   1.084       .  S
C3857      C3858   1.412       .  A
C3857      N3862   1.433       .  S
C3858      C3859   1.405       .  A
C3859      C3860   1.409       .  A
C3859      H3863   1.083       .  S
C3860      N3864   1.437       .  S
N3862      H3865   1.045       .  S
N3862      H3866   1.046       .  S
N3864      H3867   1.046       .  S
N3864      H3868   1.046       .  S
C3873      C3874   1.418       .  A
C3873      C3878   1.407       .  A
C3874      C3875   1.406       .  A
C3874      N3879   1.438       .  S
C3875      C3876   1.400       .  A
C3875      H3880   1.084       .  S
C3876      C3881   1.479       .  S
C3876      C3877   1.407       .  A
C3877      C3878   1.403       .  A
C3877      N3882   1.438       .  S
C3878      H3883   1.083       .  S
N3879      H3899   1.046       .  S
N3879      H3900   1.046       .  S
C3881      C3884   1.399       .  A
C3881      C3888   1.409       .  A
N3882      H3897   1.046       .  S
N3882      H3898   1.046       .  S
C3884      C3885   1.402       .  A
C3884      H3889   1.084       .  S
C3885      C3886   1.413       .  A
C3885      N3890   1.437       .  S
C3886      C3887   1.404       .  A
C3887      C3888   1.406       .  A
C3887      H3891   1.084       .  S
C3888      N3892   1.437       .  S
N3890      H3893   1.046       .  S
N3890      H3894   1.045       .  S
N3892      H3895   1.046       .  S
N3892      H3896   1.046       .  S
C3901      C3902   1.420       .  A
C3901      C3906   1.409       .  A
C3902      C3903   1.411       .  A
C3902      N3907   1.438       .  S
C3903      C3904   1.403       .  A
C3903      H3908   1.084       .  S
C3904      C3909   1.490       .  S
C3904      C3905   1.409       .  A
C3905      C3906   1.404       .  A
C3905      N3910   1.438       .  S
C3906      H3911   1.083       .  S
N3907      H3927   1.046       .  S
N3907      H3928   1.046       .  S
C3909      C3912   1.404       .  A
C3909      C3916   1.413       .  A
N3910      H3925   1.045       .  S
N3910      H3926   1.046       .  S
C3912      C3913   1.403       .  A
C3912      H3917   1.084       .  S
C3913      C3914   1.408       .  A
C3913      N3918   1.432       .  S
C3914      C3915   1.404       .  A
C3915      C3916   1.409       .  A
C3915      H3919   1.084       .  S
C3916      N3920   1.437       .  S
N3918      H3921   1.046       .  S
N3918      H3922   1.046       .  S
N3920      H3923   1.046       .  S
N3920      H3924   1.046       .  S
C3929      C3930   1.419       .  A
C3929      C3934   1.407       .  A
C3930      C3931   1.408       .  A
C3930      N3935   1.438       .  S
C3931      C3932   1.402       .  A
C3931      H3936   1.084       .  S
C3932      C3937   1.489       .  S
C3932      C3933   1.410       .  A
C3933      C3934   1.405       .  A
C3933      N3938   1.438       .  S
C3934      H3939   1.083       .  S
N3935      H3955   1.046       .  S
N3935      H3956   1.046       .  S
C3937      C3940   1.404       .  A
C3937      C3944   1.411       .  A
N3938      H3953   1.045       .  S
N3938      H3954   1.046       .  S
C3940      C3941   1.406       .  A
C3940      H3945   1.084       .  S
C3941      C3942   1.412       .  A
C3941      N3946   1.438       .  S
C3942      C3943   1.405       .  A
C3943      C3944   1.407       .  A
C3943      H3947   1.083       .  S
C3944      N3948   1.438       .  S
N3946      H3949   1.046       .  S
N3946      H3950   1.045       .  S
N3948      H3951   1.046       .  S
N3948      H3952   1.046       .  S
C3957      C3958   1.416       .  A
C3957      C3962   1.408       .  A
C3958      C3959   1.408       .  A
C3958      N3963   1.438       .  S
C3959      C3960   1.404       .  A
C3959      H3964   1.084       .  S
C3960      C3965   1.491       .  S
C3960      C3961   1.411       .  A
C3961      C3962   1.407       .  A
C3961      N3966   1.438       .  S
C3962      H3967   1.083       .  S
N3963      H3983   1.046       .  S
N3963      H3984   1.046       .  S
C3965      C3968   1.404       .  A
C3965      C3972   1.413       .  A
N3966      H3981   1.046       .  S
N3966      H3982   1.046       .  S
C3968      C3969   1.404       .  A
C3968      H3973   1.084       .  S
C3969      C3970   1.411       .  A
C3969      N3974   1.432       .  S
C3970      C3971   1.404       .  A
C3971      C3972   1.408       .  A
C3971      H3975   1.084       .  S
C3972      N3976   1.437       .  S
N3974      H3977   1.045       .  S
N3974      H3978   1.046       .  S
N3976      H3979   1.045       .  S
N3976      H3980   1.046       .  S
C3985      C3986   1.410       .  A
C3985      C3990   1.407       .  A
C3986      C3987   1.405       .  A
C3986      N3991   1.432       .  S
C3987      C3988   1.402       .  A
C3987      H3992   1.084       .  S
C3988      C3993   1.484       .  S
C3988      C3989   1.409       .  A
C3989      C3990   1.407       .  A
C3989      N3994   1.438       .  S
C3990      H3995   1.084       .  S
N3991      H4011   1.046       .  S
N3991      H4012   1.045       .  S
C3993      C3996   1.404       .  A
C3993      C4000   1.408       .  A
N3994      H4009   1.046       .  S
N3994      H4010   1.046       .  S
C3996      C3997   1.411       .  A
C3996      H4001   1.084       .  S
C3997      C3998   1.412       .  A
C3997      N4002   1.437       .  S
C3998      C3999   1.404       .  A
C3999      C4000   1.406       .  A
C3999      H4003   1.084       .  S
C4000      N4004   1.438       .  S
N4002      H4005   1.046       .  S
N4002      H4006   1.045       .  S
N4004      H4007   1.045       .  S
N4004      H4008   1.046       .  S
C4013      C4014   1.418       .  A
C4013      C4018   1.415       .  A
C4014      C4015   1.406       .  A
C4014      N4019   1.433       .  S
C4015      C4016   1.401       .  A
C4015      H4020   1.084       .  S
C4016      C4021   1.488       .  S
C4016      C4017   1.408       .  A
C4017      C4018   1.407       .  A
C4017      N4022   1.439       .  S
C4018      H4023   1.074       .  S
N4019      H4039   1.046       .  S
N4019      H4040   1.045       .  S
C4021      C4024   1.401       .  A
C4021      C4028   1.407       .  A
N4022      H4037   1.045       .  S
N4022      H4038   1.046       .  S
C4024      C4025   1.404       .  A
C4024      H4029   1.084       .  S
C4025      C4026   1.418       .  A
C4025      N4030   1.433       .  S
C4026      C4027   1.414       .  A
C4027      C4028   1.407       .  A
C4027      H4031   1.074       .  S
C4028      N4032   1.439       .  S
N4030      H4033   1.046       .  S
N4030      H4034   1.046       .  S
N4032      H4035   1.045       .  S
N4032      H4036   1.046       .  S
C4041      C4042   1.410       .  A
C4041      C4046   1.403       .  A
C4042      C4043   1.405       .  A
C4042      N4047   1.438       .  S
C4043      C4044   1.403       .  A
C4043      H4048   1.084       .  S
C4044      C4049   1.481       .  S
C4044      C4045   1.409       .  A
C4045      C4046   1.405       .  A
C4045      N4050   1.437       .  S
C4046      H4051   1.084       .  S
N4047      H4067   1.046       .  S
N4047      H4068   1.046       .  S
C4049      C4052   1.402       .  A
C4049      C4056   1.406       .  A
N4050      H4065   1.046       .  S
N4050      H4066   1.046       .  S
C4052      C4053   1.408       .  A
C4052      H4057   1.084       .  S
C4053      C4054   1.418       .  A
C4053      N4058   1.438       .  S
C4054      C4055   1.409       .  A
C4055      C4056   1.402       .  A
C4055      H4059   1.083       .  S
C4056      N4060   1.438       .  S
N4058      H4061   1.046       .  S
N4058      H4062   1.046       .  S
N4060      H4063   1.046       .  S
N4060      H4064   1.046       .  S
C4069      C4070   1.412       .  A
C4069      C4074   1.405       .  A
C4070      C4071   1.404       .  A
C4070      N4075   1.438       .  S
C4071      C4072   1.402       .  A
C4071      H4076   1.084       .  S
C4072      C4077   1.481       .  S
C4072      C4073   1.409       .  A
C4073      C4074   1.404       .  A
C4073      N4078   1.438       .  S
C4074      H4079   1.084       .  S
N4075      H4095   1.046       .  S
N4075      H4096   1.046       .  S
C4077      C4080   1.401       .  A
C4077      C4084   1.408       .  A
N4078      H4093   1.046       .  S
N4078      H4094   1.046       .  S
C4080      C4081   1.405       .  A
C4080      H4085   1.084       .  S
C4081      C4082   1.417       .  A
C4081      N4086   1.438       .  S
C4082      C4083   1.406       .  A
C4083      C4084   1.404       .  A
C4083      H4087   1.083       .  S
C4084      N4088   1.438       .  S
N4086      H4089   1.046       .  S
N4086      H4090   1.046       .  S
N4088      H4091   1.046       .  S
N4088      H4092   1.046       .  S
C4097      C4098   1.414   1_565  A
C4097      C4102   1.405       .  A
C4098      C4099   1.409       .  A
C4098      N4103   1.437       .  S
C4099      C4100   1.404   1_545  A
C4099      H4104   1.084       .  S
C4100      C4105   1.485       .  S
C4100      C4101   1.408       .  A
C4101      C4102   1.402       .  A
C4101      N4106   1.438       .  S
C4102      H4107   1.081       .  S
N4103      H4123   1.046       .  S
N4103      H4124   1.046       .  S
C4105      C4108   1.403   1_455  A
C4105      C4112   1.407   1_565  A
N4106      H4121   1.046       .  S
N4106      H4122   1.046       .  S
C4108      C4109   1.406       .  A
C4108      H4113   1.084       .  S
C4109      C4110   1.416   1_655  A
C4109      N4114   1.438       .  S
C4110      C4111   1.408   1_565  A
C4111      C4112   1.404       .  A
C4111      H4115   1.083       .  S
C4112      N4116   1.438       .  S
N4114      H4117   1.046       .  S
N4114      H4118   1.046       .  S
N4116      H4119   1.046       .  S
N4116      H4120   1.046   1_545  S
C4125      C4126   1.413       .  A
C4125      C4130   1.404       .  A
C4126      C4127   1.403       .  A
C4126      N4131   1.438       .  S
C4127      C4128   1.400       .  A
C4127      H4132   1.084       .  S
C4128      C4133   1.474       .  S
C4128      C4129   1.407       .  A
C4129      C4130   1.404       .  A
C4129      N4134   1.438       .  S
C4130      H4135   1.083       .  S
N4131      H4151   1.045   1_565  S
N4131      H4152   1.046       .  S
C4133      C4136   1.399   1_565  A
C4133      C4140   1.407       .  A
N4134      H4149   1.046       .  S
N4134      H4150   1.046       .  S
C4136      C4137   1.403       .  A
C4136      H4141   1.084       .  S
C4137      C4138   1.416   1_545  A
C4137      N4142   1.438       .  S
C4138      C4139   1.406       .  A
C4139      C4140   1.404       .  A
C4139      H4143   1.084       .  S
C4140      N4144   1.438       .  S
N4142      H4145   1.046       .  S
N4142      H4146   1.046       .  S
N4144      H4147   1.046       .  S
N4144      H4148   1.046       .  S
C4153      C4154   1.406       .  A
C4153      C4158   1.398   1_455  A
C4154      C4155   1.405       .  A
C4154      N4159   1.437       .  S
C4155      C4156   1.406       .  A
C4155      H4160   1.083       .  S
C4156      C4161   1.489       .  S
C4156      C4157   1.415   1_455  A
C4157      C4158   1.404       .  A
C4157      N4162   1.438       .  S
C4158      H4163   1.084       .  S
N4159      H4179   1.046       .  S
N4159      H4180   1.045       .  S
C4161      C4164   1.406   1_455  A
C4161      C4168   1.413       .  A
N4162      H4177   1.046       .  S
N4162      H4178   1.046       .  S
C4164      C4165   1.405       .  A
C4164      H4169   1.083       .  S
C4165      C4166   1.408   1_655  A
C4165      N4170   1.438       .  S
C4166      C4167   1.403       .  A
C4167      C4168   1.405       .  A
C4167      H4171   1.084       .  S
C4168      N4172   1.438       .  S
N4170      H4173   1.046       .  S
N4170      H4174   1.046       .  S
N4172      H4175   1.046       .  S
N4172      H4176   1.046       .  S
C4181      C4182   1.419       .  A
C4181      C4186   1.413       .  A
C4182      C4183   1.406       .  A
C4182      N4187   1.433       .  S
C4183      C4184   1.400       .  A
C4183      H4188   1.084       .  S
C4184      C4189   1.484       .  S
C4184      C4185   1.406       .  A
C4185      C4186   1.405       .  A
C4185      N4190   1.439       .  S
C4186      H4191   1.074   1_545  S
N4187      H4207   1.046       .  S
N4187      H4208   1.046       .  S
C4189      C4192   1.400       .  A
C4189      C4196   1.412       .  A
N4190      H4205   1.045   1_545  S
N4190      H4206   1.046       .  S
C4192      C4193   1.398       .  A
C4192      H4197   1.084       .  S
C4193      C4194   1.410       .  A
C4193      N4198   1.432       .  S
C4194      C4195   1.404       .  A
C4195      C4196   1.413       .  A
C4195      H4199   1.084       .  S
C4196      N4200   1.437       .  S
N4198      H4201   1.046       .  S
N4198      H4202   1.046       .  S
N4200      H4203   1.046       .  S
N4200      H4204   1.046       .  S
C4209      C4210   1.409       .  A
C4209      C4214   1.403       .  A
C4210      C4211   1.403       .  A
C4210      N4215   1.432       .  S
C4211      C4212   1.404       .  A
C4211      H4216   1.084       .  S
C4212      C4217   1.486       .  S
C4212      C4213   1.412       .  A
C4213      C4214   1.405       .  A
C4213      N4218   1.438       .  S
C4214      H4219   1.084       .  S
N4215      H4235   1.045       .  S
N4215      H4236   1.046       .  S
C4217      C4220   1.402       .  A
C4217      C4224   1.409       .  A
N4218      H4233   1.046       .  S
N4218      H4234   1.045       .  S
C4220      C4221   1.406       .  A
C4220      H4225   1.084       .  S
C4221      C4222   1.419       .  A
C4221      N4226   1.438       .  S
C4222      C4223   1.409       .  A
C4223      C4224   1.405       .  A
C4223      H4227   1.083       .  S
C4224      N4228   1.438       .  S
N4226      H4229   1.046       .  S
N4226      H4230   1.046       .  S
N4228      H4231   1.045       .  S
N4228      H4232   1.046       .  S
C4237      C4238   1.411       .  A
C4237      C4242   1.405       .  A
C4238      C4239   1.405       .  A
C4238      N4243   1.432       .  S
C4239      C4240   1.402       .  A
C4239      H4244   1.084       .  S
C4240      C4245   1.482       .  S
C4240      C4241   1.407       .  A
C4241      C4242   1.404       .  A
C4241      N4246   1.432       .  S
C4242      H4247   1.084       .  S
N4243      H4263   1.045       .  S
N4243      H4264   1.046       .  S
C4245      C4248   1.401       .  A
C4245      C4252   1.410       .  A
N4246      H4261   1.046       .  S
N4246      H4262   1.046       .  S
C4248      C4249   1.407       .  A
C4248      H4253   1.084       .  S
C4249      C4250   1.416       .  A
C4249      N4254   1.438       .  S
C4250      C4251   1.406       .  A
C4251      C4252   1.407       .  A
C4251      H4255   1.084       .  S
C4252      N4256   1.438       .  S
N4254      H4257   1.046       .  S
N4254      H4258   1.046       .  S
N4256      H4259   1.045       .  S
N4256      H4260   1.044       .  S
C4265      C4266   1.407       .  A
C4265      C4270   1.402       .  A
C4266      C4267   1.401       .  A
C4266      N4271   1.432       .  S
C4267      C4268   1.401       .  A
C4267      H4272   1.084       .  S
C4268      C4273   1.478       .  S
C4268      C4269   1.417       .  A
C4269      C4270   1.403       .  A
C4269      N4274   1.439       .  S
C4270      H4275   1.084       .  S
N4271      H4291   1.046       .  S
N4271      H4292   1.045       .  S
C4273      C4276   1.399       .  A
C4273      C4280   1.408       .  A
N4274      H4289   1.046       .  S
N4274      H4290   1.043       .  S
C4276      C4277   1.402       .  A
C4276      H4281   1.084       .  S
C4277      C4278   1.415       .  A
C4277      N4282   1.433       .  S
C4278      C4279   1.406       .  A
C4279      C4280   1.406       .  A
C4279      H4283   1.083       .  S
C4280      N4284   1.438       .  S
N4282      H4285   1.046       .  S
N4282      H4286   1.046       .  S
N4284      H4287   1.046       .  S
N4284      H4288   1.045       .  S
C4293      C4294   1.419       .  A
C4293      C4298   1.412       .  A
C4294      C4295   1.405       .  A
C4294      N4299   1.433       .  S
C4295      C4296   1.401       .  A
C4295      H4300   1.084       .  S
C4296      C4301   1.492       .  S
C4296      C4297   1.410       .  A
C4297      C4298   1.408       .  A
C4297      N4302   1.439       .  S
C4298      H4303   1.075       .  S
N4299      H4319   1.046       .  S
N4299      H4320   1.046       .  S
C4301      C4304   1.402       .  A
C4301      C4308   1.409       .  A
N4302      H4317   1.046       .  S
N4302      H4318   1.045       .  S
C4304      C4305   1.405       .  A
C4304      H4309   1.084       .  S
C4305      C4306   1.418       .  A
C4305      N4310   1.433       .  S
C4306      C4307   1.413       .  A
C4307      C4308   1.408       .  A
C4307      H4311   1.075       .  S
C4308      N4312   1.438       .  S
N4310      H4313   1.046       .  S
N4310      H4314   1.045       .  S
N4312      H4315   1.045       .  S
N4312      H4316   1.045       .  S
C4321      C4322   1.409       .  A
C4321      C4326   1.405   1_565  A
C4322      C4323   1.401       .  A
C4322      N4327   1.432       .  S
C4323      C4324   1.400       .  A
C4323      H4328   1.084       .  S
C4324      C4329   1.473       .  S
C4324      C4325   1.408   1_565  A
C4325      C4326   1.405       .  A
C4325      N4330   1.438       .  S
C4326      H4331   1.084       .  S
N4327      H4347   1.045   1_556  S
N4327      H4348   1.046       .  S
C4329      C4332   1.400       .  A
C4329      C4336   1.407   1_556  A
N4330      H4345   1.046       .  S
N4330      H4346   1.045   1_556  S
C4332      C4333   1.405       .  A
C4332      H4337   1.084       .  S
C4333      C4334   1.413       .  A
C4333      N4338   1.438       .  S
C4334      C4335   1.405   1_556  A
C4335      C4336   1.404       .  A
C4335      H4339   1.084       .  S
C4336      N4340   1.438       .  S
N4338      H4341   1.046       .  S
N4338      H4342   1.045       .  S
N4340      H4343   1.046       .  S
N4340      H4344   1.045   1_565  S
C4349      C4350   1.413   1_565  A
C4349      C4354   1.400       .  A
C4350      C4351   1.406       .  A
C4350      N4355   1.438       .  S
C4351      C4352   1.401   1_545  A
C4351      H4356   1.084       .  S
C4352      C4357   1.474       .  S
C4352      C4353   1.407       .  A
C4353      C4354   1.400       .  A
C4353      N4358   1.438       .  S
C4354      H4359   1.077       .  S
N4355      H4375   1.046       .  S
N4355      H4376   1.046       .  S
C4357      C4360   1.400       .  A
C4357      C4364   1.405   1_565  A
N4358      H4373   1.046       .  S
N4358      H4374   1.046       .  S
C4360      C4361   1.404       .  A
C4360      H4365   1.084       .  S
C4361      C4362   1.416       .  A
C4361      N4366   1.438       .  S
C4362      C4363   1.408   1_565  A
C4363      C4364   1.402       .  A
C4363      H4367   1.083       .  S
C4364      N4368   1.438       .  S
N4366      H4369   1.046       .  S
N4366      H4370   1.046       .  S
N4368      H4371   1.046       .  S
N4368      H4372   1.046       .  S
C4377      C4378   1.407   1_556  A
C4377      C4382   1.401       .  A
C4378      C4379   1.405       .  A
C4378      N4383   1.432       .  S
C4379      C4380   1.402   1_554  A
C4379      H4384   1.084       .  S
C4380      C4385   1.478       .  S
C4380      C4381   1.408       .  A
C4381      C4382   1.405       .  A
C4381      N4386   1.438       .  S
C4382      H4387   1.078       .  S
N4383      H4403   1.046       .  S
N4383      H4404   1.045       .  S
C4385      C4388   1.399       .  A
C4385      C4392   1.409       .  A
N4386      H4401   1.046       .  S
N4386      H4402   1.045       .  S
C4388      C4389   1.401       .  A
C4388      H4393   1.084       .  S
C4389      C4390   1.414       .  A
C4389      N4394   1.433   1_556  S
C4390      C4391   1.406       .  A
C4391      C4392   1.408       .  A
C4391      H4395   1.083       .  S
C4392      N4396   1.437       .  S
N4394      H4397   1.046   1_554  S
N4394      H4398   1.046       .  S
N4396      H4399   1.046       .  S
N4396      H4400   1.045       .  S
C4405      C4406   1.419       .  A
C4405      C4410   1.414       .  A
C4406      C4407   1.404       .  A
C4406      N4411   1.433   1_545  S
C4407      C4408   1.399       .  A
C4407      H4412   1.084       .  S
C4408      C4413   1.485       .  S
C4408      C4409   1.406       .  A
C4409      C4410   1.407       .  A
C4409      N4414   1.438       .  S
C4410      H4415   1.074   1_554  S
N4411      H4431   1.046       .  S
N4411      H4432   1.046   1_565  S
C4413      C4416   1.400       .  A
C4413      C4420   1.405       .  A
N4414      H4429   1.045   1_554  S
N4414      H4430   1.046       .  S
C4416      C4417   1.405       .  A
C4416      H4421   1.084       .  S
C4417      C4418   1.419       .  A
C4417      N4422   1.433       .  S
C4418      C4419   1.415       .  A
C4419      C4420   1.406       .  A
C4419      H4423   1.074       .  S
C4420      N4424   1.439       .  S
N4422      H4425   1.046       .  S
N4422      H4426   1.046       .  S
N4424      H4427   1.045       .  S
N4424      H4428   1.046       .  S
