geometry optimzed in LAMMPS
_audit_creation_date              2020-12-01 
_audit_creation_method            'lammps2cif' 
_symmetry_space_group_name_H-M    'P1' 
_symmetry_Int_Tables_number       1 
_symmetry_cell_setting            triclinic 
loop_ 
_symmetry_equiv_pos_as_xyz 
  x,y,z 
_cell_length_a                    28.24227835 
_cell_length_b                    28.238571717743103 
_cell_length_c                    28.243313186801387 
_cell_angle_alpha                 90.07982710782235 
_cell_angle_beta                  90.10132599695528 
_cell_angle_gamma                 89.8260191361507 
loop_ 
_atom_site_label 
_atom_site_type_symbol 
_atom_site_fract_x 
_atom_site_fract_y 
_atom_site_fract_z 
_atom_site_charge 
O1          O  0.67323486  0.40603640  0.04658738    -0.70800
O2          O  0.67463052  0.27169163  0.03767198    -0.71000
O3          O  0.74092895  0.33921659  0.03873067    -0.70800
O4          O  0.60687245  0.33810762  0.04583109    -0.70800
O5          O  0.60252337  0.34782172  0.96976192    -0.70800
O6          O  0.73684547  0.33952775  0.96181414    -0.70800
O7          O  0.66535814  0.27663639  0.96137664    -0.70800
O8          O  0.67402034  0.41073080  0.96986400    -0.70900
V9          V  0.67383584  0.33890179  0.04073372     1.35200
V10         V  0.66975365  0.34362150  0.96712269     1.35200
C11         C  0.67421934  0.43132986  0.00966195     0.78500
C12         C  0.66949050  0.25144507  0.99808239     0.78500
C13         C  0.76157944  0.33850766  0.99914508     0.78400
C14         C  0.58169012  0.34324723  0.00914797     0.78400
O15         O  0.14029532  0.39806961  0.97456769    -0.70800
O16         O  0.13355607  0.26390571  0.96483621    -0.71000
O17         O  0.06974808  0.33483417  0.96594330    -0.70800
O18         O  0.20388937  0.32732476  0.97347636    -0.70800
O19         O  0.19986353  0.32704667  0.05022546    -0.70800
O20         O  0.06542065  0.32512934  0.04217569    -0.70800
O21         O  0.13382358  0.25881633  0.04165283    -0.70800
O22         O  0.13184174  0.39337572  0.05068800    -0.70900
V23         V  0.13678325  0.33093591  0.97117932     1.35200
V24         V  0.13274530  0.32614994  0.04475183     1.35200
C25         C  0.13701045  0.41880537  0.01418661     0.78500
C26         C  0.13328157  0.23859885  0.00168112     0.78500
C27         C  0.04483092  0.33027649  0.00273403     0.78400
C28         C  0.22483360  0.32712286  0.01310068     0.78400
O29         O  0.65701749  0.80912301  0.97315238    -0.70800
O30         O  0.66250341  0.94298018  0.96331959    -0.71000
O31         O  0.72681685  0.87231861  0.96219689    -0.70800
O32         O  0.59283726  0.87958170  0.97463408    -0.70800
O33         O  0.59987488  0.88152102  0.05106819    -0.70800
O34         O  0.73401195  0.88089522  0.03839193    -0.70800
O35         O  0.66667477  0.94835708  0.04004047    -0.70800
O36         O  0.66758503  0.81387454  0.04910455    -0.70900
V37         V  0.65990239  0.87610977  0.96982618     1.35200
V38         V  0.66687220  0.88108552  0.04321919     1.35200
C39         C  0.66233119  0.78848384  0.01250655     0.78500
C40         C  0.66495076  0.96835150  0.00005206     0.78500
C41         C  0.75311599  0.87572768  0.99828342     0.78400
C42         C  0.57332544  0.88130778  0.01492400     0.78400
O43         O  0.12284720  0.80118773  0.05248918    -0.70800
O44         O  0.12077258  0.93533772  0.04120889    -0.71000
O45         O  0.05488804  0.86702527  0.03902900    -0.70800
O46         O  0.18893000  0.86981708  0.05427917    -0.70800
O47         O  0.19707668  0.86266932  0.97817080    -0.70800
O48         O  0.06337869  0.86123605  0.96273252    -0.70800
O49         O  0.13018526  0.92923472  0.96504145    -0.70800
O50         O  0.13169222  0.79495008  0.97629629    -0.70900
V51         V  0.12195592  0.86819192  0.04527141     1.35200
V52         V  0.13024468  0.86213230  0.97204415     1.35200
C53         C  0.12874070  0.77531436  0.01640820     0.78500
C54         C  0.12560968  0.95501169  0.00138060     0.78500
C55         C  0.03644791  0.86422393  0.99829820     0.78400
C56         C  0.21587835  0.86629011  0.01865594     0.78400
O57         O  0.60109694  0.06816711  0.76007016    -0.70800
O58         O  0.73515883  0.06276242  0.76839764    -0.71000
O59         O  0.66414507  0.06810454  0.83144378    -0.70800
O60         O  0.67197337  0.06283424  0.69724026    -0.70800
O61         O  0.66747042  0.13950276  0.69452567    -0.70800
O62         O  0.67466223  0.14432257  0.82887167    -0.70800
O63         O  0.73805324  0.13901191  0.75799409    -0.70800
O64         O  0.60384438  0.14487225  0.76504412    -0.70900
V65         V  0.66814636  0.06685659  0.76427983     1.35200
V66         V  0.67095634  0.14055853  0.76169050     1.35200
C67         C  0.57954296  0.10742587  0.76218967     0.78500
C68         C  0.75930518  0.09992895  0.76303370     0.78500
C69         C  0.66928334  0.10703218  0.85293050     0.78400
C70         C  0.66984783  0.10032641  0.67285616     0.78400
O71         O  0.13551525  0.06586273  0.69683206    -0.70800
O72         O  0.13116852  0.06039998  0.83133929    -0.71000
O73         O  0.06628011  0.06035984  0.76143114    -0.70800
O74         O  0.20048945  0.06553674  0.76634579    -0.70800
O75         O  0.19747969  0.14227360  0.76545987    -0.70800
O76         O  0.06310294  0.13700233  0.76867971    -0.70800
O77         O  0.13192223  0.13736807  0.83418234    -0.70800
O78         O  0.12839684  0.14230553  0.70000059    -0.70900
V79         V  0.13333096  0.06448405  0.76408652     1.35200
V80         V  0.13030871  0.13826355  0.76703510     1.35200
C81         C  0.13185121  0.10503769  0.67539387     0.78500
C82         C  0.13127808  0.09812232  0.85549349     0.78500
C83         C  0.04199784  0.09780647  0.76476985     0.78400
C84         C  0.22203961  0.10471597  0.76582108     0.78400
O85         O  0.19475449  0.06379919  0.23139974    -0.70800
O86         O  0.06042409  0.06691660  0.22829542    -0.71000
O87         O  0.12905674  0.06207498  0.16279201    -0.70800
O88         O  0.12585738  0.06870076  0.29698301    -0.70800
O89         O  0.13097806  0.14533031  0.29362066    -0.70800
O90         O  0.12738752  0.13902602  0.15935820    -0.70800
O91         O  0.06198713  0.14393904  0.22776812    -0.70800
O92         O  0.19634276  0.14030907  0.22455979    -0.70900
V93         V  0.12757882  0.06685192  0.22984861     1.35200
V94         V  0.12915984  0.14068677  0.22646542     1.35200
C95         C  0.21853990  0.10144484  0.22738314     0.78500
C96         C  0.03851888  0.10594556  0.22777445     0.78500
C97         C  0.12821168  0.09951245  0.13841772     0.78400
C98         C  0.12809134  0.10807581  0.31823603     0.78400
O99         O  0.66626225  0.06137515  0.29098199    -0.70800
O100        O  0.66800535  0.06801727  0.15672351    -0.71000
O101        O  0.73412945  0.06609952  0.22475399    -0.70800
O102        O  0.59980073  0.06325692  0.22262145    -0.70800
O103        O  0.59796334  0.13969813  0.23048411    -0.70800
O104        O  0.73216537  0.14313158  0.22478114    -0.70800
O105        O  0.66194133  0.14474950  0.16050921    -0.70800
O106        O  0.66851002  0.13815045  0.29457807    -0.70900
V107        V  0.66695735  0.06614067  0.22385356     1.35200
V108        V  0.66511310  0.13996404  0.22752085     1.35200
C109        C  0.66834324  0.09869965  0.31569195     0.78500
C110        C  0.66489994  0.10747307  0.13594960     0.78500
C111        C  0.75581430  0.10512718  0.22458067     0.78400
C112        C  0.57588692  0.10098118  0.22661055     0.78400
O113        O  0.84890288  0.86474145  0.69394740    -0.70800
O114        O  0.85255986  0.87105068  0.82856946    -0.71000
O115        O  0.85539901  0.93480422  0.75811071    -0.70800
O116        O  0.84594961  0.80053219  0.76463461    -0.70800
O117        O  0.92208974  0.79525489  0.75529407    -0.70800
O118        O  0.93198973  0.92917250  0.76411580    -0.70800
O119        O  0.92844356  0.85783335  0.82679141    -0.70800
O120        O  0.92571900  0.86671649  0.69274741    -0.70900
V121        V  0.85203452  0.86762425  0.76128172     1.35200
V122        V  0.92563289  0.86226416  0.75974176     1.35200
C123        C  0.88691347  0.86652767  0.67034469     0.78500
C124        C  0.89114186  0.86465965  0.85044567     0.78500
C125        C  0.89530154  0.95472413  0.76133500     0.78400
C126        C  0.88249877  0.77494781  0.75991277     0.78400
O127        O  0.85150370  0.39282637  0.76715262    -0.70800
O128        O  0.85962450  0.25873324  0.77125060    -0.71000
O129        O  0.85991922  0.32822691  0.83614491    -0.70800
O130        O  0.85149062  0.32352509  0.70181380    -0.70800
O131        O  0.92750684  0.33406899  0.69750953    -0.70800
O132        O  0.93677500  0.32670549  0.83139351    -0.70800
O133        O  0.93570277  0.26277831  0.76025446    -0.70800
O134        O  0.92818186  0.39717497  0.76845204    -0.70900
V135        V  0.85706682  0.32583650  0.76898849     1.35200
V136        V  0.93064056  0.32997976  0.76446685     1.35200
C137        C  0.88843299  0.41800984  0.76828525     0.78500
C138        C  0.89886107  0.23800454  0.76550197     0.78500
C139        C  0.89981880  0.32790537  0.85645615     0.78400
C140        C  0.88805272  0.32971256  0.67677224     0.78400
O141        O  0.93313297  0.87264465  0.29090765    -0.70800
O142        O  0.93457163  0.87662466  0.15628540    -0.71000
O143        O  0.93494661  0.94195782  0.22565963    -0.70800
O144        O  0.93313989  0.80764100  0.22139968    -0.70800
O145        O  0.85636907  0.80884368  0.22483985    -0.70800
O146        O  0.85807577  0.94320363  0.22070887    -0.70800
O147        O  0.85761109  0.87353064  0.15568057    -0.70800
O148        O  0.85646353  0.87820778  0.28971331    -0.70900
V149        V  0.93252108  0.87478998  0.22354890     1.35200
V150        V  0.85862100  0.87597197  0.22272312     1.35200
C151        C  0.89441692  0.87530091  0.31328715     0.78500
C152        C  0.89620492  0.87457049  0.13329921     0.78500
C153        C  0.89681295  0.96529704  0.22337350     0.78400
C154        C  0.89447596  0.78527914  0.22310193     0.78400
O155        O  0.85266779  0.33826034  0.29423635    -0.70800
O156        O  0.85953985  0.33765840  0.15989521    -0.71000
O157        O  0.85684485  0.27073061  0.22709349    -0.70800
O158        O  0.85536932  0.40518478  0.22662586    -0.70800
O159        O  0.93203028  0.40580031  0.23221039    -0.70800
O160        O  0.93380845  0.27144101  0.23004530    -0.70800
O161        O  0.93643157  0.33973904  0.16391462    -0.70800
O162        O  0.92933170  0.33763520  0.29812972    -0.70900
V163        V  0.85757940  0.33799125  0.22707758     1.35200
V164        V  0.93140052  0.33864727  0.23100008     1.35200
C165        C  0.88987039  0.33776500  0.31924777     0.78500
C166        C  0.89913084  0.33871069  0.13921939     0.78500
C167        C  0.89562062  0.24836996  0.22832051     0.78400
C168        C  0.89346425  0.42845047  0.22937603     0.78400
O169        O  0.90343696  0.29238548  0.93219638    -0.70800
O170        O  0.90010226  0.29800224  0.06635081    -0.71000
O171        O  0.83475254  0.29741060  0.99757158    -0.70800
O172        O  0.96939262  0.29350818  0.00167108    -0.70800
O173        O  0.97138063  0.37030260  0.99626710    -0.70800
O174        O  0.83697821  0.37440299  0.99648532    -0.70800
O175        O  0.90433946  0.37486432  0.06366271    -0.70800
O176        O  0.90353818  0.36936028  0.92912289    -0.70900
V177        V  0.90207345  0.29681366  0.99929153     1.35200
V178        V  0.90410867  0.37074099  0.99638686     1.35200
C179        C  0.90285717  0.32991086  0.90796609     0.78500
C180        C  0.90155339  0.33724929  0.08769354     0.78500
C181        C  0.81314802  0.33666679  0.99709189     0.78400
C182        C  0.99314228  0.33134691  0.99988687     0.78400
O183        O  0.82911763  0.91090349  0.99443156    -0.70800
O184        O  0.96354663  0.90473442  0.98789927    -0.71000
O185        O  0.89242098  0.90545448  0.92360021    -0.70800
O186        O  0.90000157  0.91019912  0.05776880    -0.70800
O187        O  0.89161006  0.83368711  0.06047800    -0.70800
O188        O  0.89471480  0.82849800  0.92607924    -0.70800
O189        O  0.96056629  0.82818932  0.99562679    -0.70800
O190        O  0.82586018  0.83400807  0.99177244    -0.70900
V191        V  0.89624226  0.90635361  0.99077487     1.35200
V192        V  0.89326665  0.83251796  0.99329564     1.35200
C193        C  0.80472263  0.87347059  0.99414442     0.78500
C194        C  0.98484884  0.86561621  0.99291794     0.78500
C195        C  0.89281353  0.86619410  0.90210317     0.78400
C196        C  0.89619024  0.87275950  0.08179852     0.78400
O197        O  0.83029703  0.10591844  0.18658601    -0.70800
O198        O  0.96470424  0.10892266  0.18832084    -0.71000
O199        O  0.89905083  0.04023579  0.18617532    -0.70800
O200        O  0.89570482  0.17466684  0.18859255    -0.70800
O201        O  0.89747254  0.17343812  0.26559753    -0.70800
O202        O  0.89594604  0.03897198  0.26313007    -0.70800
O203        O  0.96388643  0.10513556  0.26525625    -0.70800
O204        O  0.82962939  0.10707721  0.26362080    -0.70900
V205        V  0.89746982  0.10744036  0.18889487     1.35200
V206        V  0.89675971  0.10621362  0.26290318     1.35200
C207        C  0.80729924  0.10620564  0.22488407     0.78500
C208        C  0.98698076  0.10693080  0.22709199     0.78500
C209        C  0.89740826  0.01689492  0.22423870     0.78400
C210        C  0.89630373  0.19676339  0.22748910     0.78400
O211        O  0.96743574  0.09925230  0.80244259    -0.70800
O212        O  0.83330694  0.09245227  0.80128343    -0.71000
O213        O  0.90359214  0.02843819  0.80065998    -0.70800
O214        O  0.89669959  0.16297234  0.80278212    -0.70800
O215        O  0.90573532  0.16408441  0.72632554    -0.70800
O216        O  0.89572564  0.02982546  0.72404810    -0.70800
O217        O  0.83377930  0.10221021  0.72488764    -0.70800
O218        O  0.96800850  0.09207748  0.72573854    -0.70900
V219        V  0.90037240  0.09575032  0.80041921     1.35200
V220        V  0.90087031  0.09693429  0.72658983     1.35200
C221        C  0.99044656  0.09600023  0.76428963     0.78500
C222        C  0.81083080  0.09792889  0.76300737     0.78500
C223        C  0.89870305  0.00635682  0.76200711     0.78400
C224        C  0.90105853  0.18631644  0.76489250     0.78400
O225        O  0.62765399  0.11379802  0.06111497    -0.70800
O226        O  0.62979829  0.10707014  0.92675578    -0.71000
O227        O  0.62757402  0.04341250  0.99743268    -0.70800
O228        O  0.62994690  0.17786985  0.99086884    -0.70800
O229        O  0.70662045  0.17624998  0.99815321    -0.70800
O230        O  0.70447843  0.04180554  0.99338646    -0.70800
O231        O  0.70667460  0.11134933  0.92804227    -0.70800
O232        O  0.70435734  0.10647095  0.06242992    -0.70900
V233        V  0.63017731  0.11057020  0.99395900     1.35200
V234        V  0.70409819  0.10907220  0.99532565     1.35200
C235        C  0.66562520  0.10971116  0.08446265     0.78500
C236        C  0.66858853  0.10875885  0.90463229     0.78500
C237        C  0.66568457  0.01989109  0.99650031     0.78400
C238        C  0.66865197  0.19981683  0.99512831     0.78400
O239        O  0.09181762  0.09592074  0.92934866    -0.70800
O240        O  0.09034398  0.10031655  0.06378483    -0.71000
O241        O  0.09302875  0.16533305  0.99494638    -0.70800
O242        O  0.08901526  0.03070676  0.99896523    -0.70800
O243        O  0.16591605  0.02821505  0.99567983    -0.70800
O244        O  0.16984463  0.16285001  0.00002840    -0.70800
O245        O  0.16711113  0.09365055  0.06475116    -0.70800
O246        O  0.16881600  0.09743318  0.93041913    -0.70900
V247        V  0.09251055  0.09796768  0.99664541     1.35200
V248        V  0.16644750  0.09555606  0.99759691     1.35200
C249        C  0.13060971  0.09674751  0.90714310     0.78500
C250        C  0.12852071  0.09741379  0.08694423     0.78500
C251        C  0.13204490  0.18687906  0.99836998     0.78400
C252        C  0.12682473  0.00668224  0.99797482     0.78400
C253        C  0.85580879  0.55513148  0.20565363     0.13700
C254        C  0.89309692  0.58066908  0.22640644     0.00700
C255        C  0.93023665  0.55597571  0.24859601     0.15600
C256        C  0.93035551  0.50649681  0.24964983     0.25000
C257        C  0.89302239  0.48080302  0.22888875    -0.41300
C258        C  0.85561384  0.50565778  0.20707534     0.32100
C259        C  0.89322208  0.63304621  0.22500699     0.00700
F260        F  0.96602133  0.57986898  0.27004273    -0.13600
F261        F  0.81946702  0.48211483  0.18586301    -0.14100
C262        C  0.85534570  0.65890463  0.24438145     0.15600
C263        C  0.85551346  0.70837297  0.24333615     0.25100
C264        C  0.89387279  0.73292658  0.22330034    -0.41200
C265        C  0.93177430  0.70691833  0.20382007     0.32000
C266        C  0.93130492  0.65742528  0.20449186     0.13700
F267        F  0.81864659  0.63620525  0.26537439    -0.13600
F268        F  0.96886894  0.72929720  0.18316829    -0.14100
F269        F  0.81870730  0.73219449  0.26317288    -0.16400
F270        F  0.96771003  0.63322240  0.18435120    -0.14900
F271        F  0.82007101  0.57813874  0.18302509    -0.15000
F272        F  0.96652618  0.48381509  0.27191080    -0.16400
C273        C  0.85176723  0.30624631  0.54946935     0.13700
C274        C  0.88256035  0.33645513  0.52467123     0.00700
C275        C  0.91361867  0.36563002  0.55044214     0.15600
C276        C  0.91530763  0.36327095  0.59981647     0.25000
C277        C  0.88508389  0.33259056  0.62460521    -0.41300
C278        C  0.85265608  0.30472884  0.59906413     0.32100
C279        C  0.88383497  0.33642718  0.47206745     0.00700
F280        F  0.94223308  0.39674904  0.52772934    -0.13600
F281        F  0.82319516  0.27458598  0.62198236    -0.14100
C282        C  0.84250834  0.34414793  0.44530536     0.15600
C283        C  0.84423039  0.34425948  0.39572836     0.25100
C284        C  0.88754962  0.33723539  0.37184648    -0.41200
C285        C  0.92887384  0.32965554  0.39891058     0.32000
C286        C  0.92690652  0.32887394  0.44831649     0.13700
F287        F  0.80055378  0.35267665  0.46717138    -0.13600
F288        F  0.97142318  0.32242077  0.37774589    -0.14100
F289        F  0.80349820  0.35196593  0.37128685    -0.16400
F290        F  0.96722424  0.31990911  0.47304582    -0.14900
F291        F  0.82202638  0.27694094  0.52565228    -0.15000
F292        F  0.94599239  0.39173349  0.62348235    -0.16400
C293        C  0.92735719  0.85127642  0.44130986     0.13700
C294        C  0.88936302  0.87250742  0.46555092     0.00700
C295        C  0.85330115  0.89489225  0.43953050     0.15600
C296        C  0.85506184  0.89591452  0.39007032     0.25000
C297        C  0.89315894  0.87480709  0.36567052    -0.41300
C298        C  0.92936498  0.85254071  0.39182983     0.32100
C299        C  0.88779417  0.87183910  0.51798128     0.00700
F300        F  0.81683245  0.91669039  0.46210793    -0.13600
F301        F  0.96603902  0.83077833  0.36954390    -0.14100
C302        C  0.92478277  0.89206034  0.54432338     0.15600
C303        C  0.92423001  0.89051760  0.59376058     0.25100
C304        C  0.88646538  0.86890276  0.61794624    -0.41200
C305        C  0.84881616  0.84960992  0.59151916     0.32000
C306        C  0.84961650  0.85089911  0.54193459     0.13700
F307        F  0.96118702  0.91403474  0.52207509    -0.13600
F308        F  0.81191488  0.82826795  0.61354268    -0.14100
F309        F  0.96025032  0.91120005  0.61797881    -0.16400
F310        F  0.81368149  0.83062818  0.51723604    -0.14900
F311        F  0.96209895  0.82846194  0.46561702    -0.15000
F312        F  0.81994352  0.91853542  0.36612488    -0.16400
C313        C  0.91086294  0.64617870  0.73514072     0.13700
C314        C  0.87876387  0.62274552  0.76484764     0.00700
C315        C  0.84619040  0.64949572  0.79139526     0.15600
C316        C  0.84642122  0.69909137  0.78895843     0.25000
C317        C  0.87956517  0.72262036  0.76020852    -0.41300
C318        C  0.91137882  0.69561187  0.73293085     0.32100
C319        C  0.88001172  0.57041726  0.76824139     0.00700
F320        F  0.81523025  0.62760955  0.82081485    -0.13600
F321        F  0.94261450  0.71708929  0.70351127    -0.14100
C322        C  0.92093221  0.54736024  0.78482541     0.15600
C323        C  0.92356576  0.49789127  0.78528525     0.25100
C324        C  0.88516435  0.47045352  0.76919716    -0.41200
C325        C  0.84373281  0.49374510  0.75361980     0.32000
C326        C  0.84125938  0.54326620  0.75313844     0.13700
F327        F  0.95837166  0.57291110  0.80079537    -0.13600
F328        F  0.80607114  0.46871467  0.73736446    -0.14100
F329        F  0.96356840  0.47694143  0.80199594    -0.16400
F330        F  0.80156952  0.56476395  0.73639711    -0.14900
F331        F  0.94156814  0.62101004  0.70795134    -0.15000
F332        F  0.81561158  0.72407732  0.81618876    -0.16400
C333        C  0.34577778  0.06075695  0.24354729     0.13700
C334        C  0.37096136  0.09862405  0.22357180     0.00700
C335        C  0.34577937  0.13676874  0.20376767     0.15600
C336        C  0.29631026  0.13767101  0.20498449     0.25000
C337        C  0.27095518  0.10012303  0.22563694    -0.41300
C338        C  0.29625124  0.06132071  0.24432749     0.32100
C339        C  0.42343964  0.09895121  0.22437594     0.00700
F340        F  0.36916672  0.17298512  0.18266951    -0.13600
F341        F  0.27319152  0.02442795  0.26457339    -0.14100
C342        C  0.44944239  0.06157831  0.20413158     0.15600
C343        C  0.49896714  0.06189151  0.20534152     0.25100
C344        C  0.52345196  0.09995204  0.22633421    -0.41200
C345        C  0.49726500  0.13738306  0.24649265     0.32000
C346        C  0.44778924  0.13671660  0.24573063     0.13700
F347        F  0.42685876  0.02523900  0.18220457    -0.13600
F348        F  0.51945394  0.17426708  0.26789468    -0.14100
F349        F  0.52287873  0.02549410  0.18481765    -0.16400
F350        F  0.42356173  0.17264415  0.26671530    -0.14900
F351        F  0.36920445  0.02378242  0.26357211    -0.15000
F352        F  0.27327922  0.17495649  0.18507371    -0.16400
C353        C  0.15096453  0.14721784  0.44480643     0.13700
C354        C  0.12729072  0.11187467  0.47049112     0.00700
C355        C  0.10253529  0.07646949  0.44584201     0.15600
C356        C  0.10264408  0.07545561  0.39639083     0.25000
C357        C  0.12705375  0.11023411  0.37054847    -0.41300
C358        C  0.15064075  0.14657406  0.39521725     0.32100
C359        C  0.12934959  0.11088466  0.52291396     0.00700
F360        F  0.07785411  0.04299523  0.46978854    -0.13600
F361        F  0.17485809  0.18047965  0.37141564    -0.14100
C362        C  0.11274586  0.14936622  0.54978015     0.15600
C363        C  0.11382137  0.14766962  0.59929746     0.26900
C364        C  0.13139136  0.10725864  0.62291384    -0.41200
C365        C  0.14825823  0.06889215  0.59576763     0.32000
C366        C  0.14739611  0.07082330  0.54632795     0.13700
F367        F  0.09431977  0.18814803  0.52805035    -0.13600
F368        F  0.16632361  0.02964550  0.61694120    -0.14100
F369        F  0.09650981  0.18517693  0.62400633    -0.16400
F370        F  0.16484250  0.03367435  0.52116926    -0.14900
F371        F  0.17567916  0.18147415  0.46775599    -0.15000
F372        F  0.07809124  0.04085919  0.37377792    -0.16400
C373        C  0.65038532  0.05837809  0.44242484     0.13700
C374        C  0.67292494  0.09477137  0.46786917     0.00700
C375        C  0.69549237  0.13131149  0.44290807     0.15600
C376        C  0.69413998  0.13241446  0.39347134     0.25000
C377        C  0.67081522  0.09653410  0.36794092    -0.41300
C378        C  0.64967856  0.05902470  0.39286399     0.32100
C379        C  0.67175501  0.09562611  0.52035352     0.00700
F380        F  0.71921198  0.16584852  0.46650023    -0.13600
F381        F  0.62678902  0.02388381  0.36936387    -0.14100
C382        C  0.68910898  0.05719888  0.54683818     0.15600
C383        C  0.68817476  0.05847599  0.59637739     0.25100
C384        C  0.67022246  0.09846257  0.62039157    -0.41200
C385        C  0.65279967  0.13685316  0.59368251     0.32000
C386        C  0.65332769  0.13528151  0.54423266     0.13700
F387        F  0.70801968  0.01884810  0.52472408    -0.13600
F388        F  0.63431413  0.17567512  0.61531877    -0.14100
F389        F  0.70597969  0.02100249  0.62074469    -0.16400
F390        F  0.63500048  0.17230854  0.51955240    -0.14900
F391        F  0.62764228  0.02304315  0.46559414    -0.15000
F392        F  0.71642863  0.16821850  0.37055977    -0.16400
C393        C  0.34805707  0.14963678  0.75193314     0.13700
C394        C  0.37475217  0.10910776  0.76328884     0.00700
C395        C  0.35098992  0.06732809  0.77591151     0.15600
C396        C  0.30152686  0.06583808  0.77658995     0.25000
C397        C  0.27459862  0.10643777  0.76536927    -0.41300
C398        C  0.29853164  0.14844476  0.75322615     0.32100
C399        C  0.42729350  0.11007334  0.76169146     0.00700
F400        F  0.37576891  0.02796572  0.78837502    -0.13600
F401        F  0.27412358  0.18823620  0.74147430    -0.14100
C402        C  0.45288436  0.14395879  0.78777378     0.15600
C403        C  0.50245599  0.14384863  0.78714852     0.25100
C404        C  0.52727991  0.10921946  0.76124037    -0.41200
C405        C  0.50168947  0.07566998  0.73481550     0.32000
C406        C  0.45221397  0.07640140  0.73465165     0.13700
F407        F  0.42990700  0.17624925  0.81508452    -0.13600
F408        F  0.52460942  0.04269432  0.70826957    -0.14100
F409        F  0.52614896  0.17648174  0.81333282    -0.16400
F410        F  0.42858028  0.04446525  0.70756432    -0.14900
F411        F  0.36993433  0.19016146  0.73840378    -0.15000
F412        F  0.28015377  0.02464969  0.78887531    -0.16400
C413        C  0.44297062  0.89087949  0.98256762     0.13700
C414        C  0.42059301  0.87801825  0.02509705     0.00700
C415        C  0.44873507  0.86932021  0.06533957     0.15600
C416        C  0.49827609  0.87191779  0.06263186     0.25000
C417        C  0.52077366  0.88239800  0.01931966    -0.41300
C418        C  0.49233592  0.89271510  0.97958092     0.32100
C419        C  0.36815274  0.87239727  0.02647418     0.00700
F420        F  0.42841058  0.85649788  0.10690217    -0.13600
F421        F  0.51217634  0.90485819  0.93757731    -0.14100
C422        C  0.34542910  0.84371001  0.99262861     0.15600
C423        C  0.29606292  0.84121629  0.99077850     0.25100
C424        C  0.26813600  0.86644228  0.02346083    -0.41200
C425        C  0.29074878  0.89306594  0.05904609     0.32000
C426        C  0.34031796  0.89649350  0.06019167     0.13700
F427        F  0.37115096  0.81796737  0.96113702    -0.13600
F428        F  0.26487564  0.91758317  0.09135277    -0.14100
F429        F  0.27554529  0.81369113  0.95707597    -0.16400
F430        F  0.36093321  0.92497091  0.09299508    -0.14900
F431        F  0.41688308  0.90180781  0.94362289    -0.15000
F432        F  0.52410948  0.86268007  0.10215481    -0.16400
C433        C  0.17633269  0.65088472  0.00207178     0.13700
C434        C  0.14186833  0.62400854  0.02568169     0.00700
C435        C  0.10424817  0.64745178  0.04849033     0.15600
C436        C  0.10031865  0.69690842  0.04637556     0.25000
C437        C  0.13364815  0.72349585  0.02093448    -0.41300
C438        C  0.17211155  0.70020737  0.99951531     0.32100
C439        C  0.14295278  0.57153829  0.02318474     0.00700
F440        F  0.07021175  0.62223869  0.07101595    -0.13600
F441        F  0.20595760  0.72539902  0.97664522    -0.14100
C442        C  0.14686344  0.54393753  0.06434550     0.15600
C443        C  0.14516356  0.49435824  0.06161221     0.25100
C444        C  0.13940064  0.47142449  0.01750594    -0.41200
C445        C  0.13630482  0.49946652  0.97629837     0.32000
C446        C  0.13811868  0.54886688  0.97919655     0.13700
F447        F  0.15281760  0.56504986  0.10716099    -0.13600
F448        F  0.13049238  0.47930092  0.93302343    -0.14100
F449        F  0.14961737  0.46894840  0.10215855    -0.16400
F450        F  0.13377183  0.57478790  0.93894916    -0.14900
F451        F  0.21395157  0.62924277  0.98129269    -0.15000
F452        F  0.06279391  0.71861457  0.06723565    -0.16400
C453        C  0.64658449  0.65935823  0.97884571     0.13700
C454        C  0.66937437  0.63601607  0.01639725     0.00700
C455        C  0.68843711  0.66286293  0.05372851     0.15600
C456        C  0.68537244  0.71241594  0.05314338     0.25000
C457        C  0.66323175  0.73597792  0.01504102    -0.41300
C458        C  0.64349944  0.70875852  0.97812376     0.32100
C459        C  0.67300400  0.58364272  0.01631286     0.00700
F460        F  0.71120330  0.64109510  0.09010477    -0.13600
F461        F  0.62067476  0.72986462  0.94139451    -0.14100
C462        C  0.69700774  0.56011149  0.97957890     0.15600
C463        C  0.69789608  0.51059017  0.97769615     0.25100
C464        C  0.67507767  0.48367517  0.01278318    -0.41200
C465        C  0.65211295  0.50732777  0.05022734     0.32000
C466        C  0.65093699  0.55688619  0.05183724     0.13700
F467        F  0.71976561  0.58521529  0.94558158    -0.13600
F468        F  0.62904922  0.48252525  0.08421796    -0.14100
F469        F  0.72166010  0.48897049  0.94188790    -0.16400
F470        F  0.62674031  0.57880749  0.08715711    -0.14900
F471        F  0.62677399  0.63414176  0.94298864    -0.15000
F472        F  0.70545615  0.73726304  0.08909673    -0.16400
C473        C  0.35009353  0.35300667  0.05445460     0.13700
C474        C  0.37699190  0.33421202  0.01698265     0.00700
C475        C  0.35366689  0.31118022  0.97951670     0.15600
C476        C  0.30428987  0.30824928  0.97868726     0.25000
C477        C  0.27718492  0.32782486  0.01564078    -0.41300
C478        C  0.30061265  0.34960955  0.05395171     0.32100
C479        C  0.42929813  0.33882038  0.01639805     0.00700
F480        F  0.37885685  0.29108405  0.94380581    -0.13600
F481        F  0.27560799  0.36932837  0.09000423    -0.14100
C482        C  0.45691443  0.32014057  0.05336153     0.15600
C483        C  0.50637158  0.32237352  0.05145327     0.25100
C484        C  0.52924019  0.34307890  0.01227260    -0.41200
C485        C  0.50138578  0.36262477  0.97574910     0.32000
C486        C  0.45194820  0.36068215  0.97794211     0.13700
F487        F  0.43602305  0.29821153  0.09060047    -0.13600
F488        F  0.52188720  0.38407288  0.93802185    -0.14100
F489        F  0.53179903  0.30272200  0.08727388    -0.16400
F490        F  0.42604820  0.38044015  0.94251110    -0.14900
F491        F  0.37165150  0.37602218  0.09078059    -0.15000
F492        F  0.28302022  0.28564362  0.94194190    -0.16400
loop_ 
_geom_bond_atom_site_label_1 
_geom_bond_atom_site_label_2 
_geom_bond_distance 
_geom_bond_site_symmetry_2 
_ccdc_geom_bond_type 
O1            V9   1.903       .  S
O1           C11   1.265       .  A
O2            V9   1.900       .  S
O2           C12   1.263   1_554  A
O3            V9   1.896       .  S
O3           C13   1.262   1_554  A
O4            V9   1.897       .  S
O4           C14   1.264       .  A
O5           V10   1.904       .  S
O5           C14   1.266   1_556  A
O6           V10   1.904       .  S
O6           C13   1.264       .  A
O7           V10   1.903       .  S
O7           C12   1.263       .  A
O8           V10   1.901       .  S
O8           C11   1.265   1_556  A
V9           V10   2.086   1_554  T
C11         C464   1.481       .  S
C12         C238   1.460       .  S
C13         C181   1.458       .  S
C14         C484   1.484       .  S
O15          V23   1.901       .  S
O15          C25   1.266   1_556  A
O16          V23   1.903       .  S
O16          C26   1.263   1_556  A
O17          V23   1.902       .  S
O17          C27   1.263   1_556  A
O18          V23   1.899       .  S
O18          C28   1.265   1_556  A
O19          V24   1.902       .  S
O19          C28   1.265       .  A
O20          V24   1.903       .  S
O20          C27   1.264       .  A
O21          V24   1.903       .  S
O21          C26   1.264       .  A
O22          V24   1.906       .  S
O22          C25   1.266       .  A
V23          V24   2.086   1_556  T
C25         C444   1.490       .  S
C26         C251   1.464   1_554  S
C27         C182   1.462   1_454  S
C28         C477   1.480       .  S
O29          V37   1.896       .  S
O29          C39   1.264   1_556  A
O30          V37   1.899       .  S
O30          C40   1.262   1_556  A
O31          V37   1.905       .  S
O31          C41   1.264       .  A
O32          V37   1.901       .  S
O32          C42   1.266   1_556  A
O33          V38   1.905       .  S
O33          C42   1.266       .  A
O34          V38   1.901       .  S
O34          C41   1.264   1_554  A
O35          V38   1.902       .  S
O35          C40   1.264       .  A
O36          V38   1.905       .  S
O36          C39   1.266       .  A
V37          V38   2.086   1_556  T
C39         C457   1.485       .  S
C40         C237   1.459   1_564  S
C41         C193   1.464       .  S
C42         C417   1.490       .  S
O43          V51   1.903       .  S
O43          C53   1.264       .  A
O44          V51   1.900       .  S
O44          C54   1.263       .  A
O45          V51   1.902       .  S
O45          C55   1.264   1_554  A
O46          V51   1.909       .  S
O46          C56   1.266       .  A
O47          V52   1.895       .  S
O47          C56   1.264   1_556  A
O48          V52   1.906       .  S
O48          C55   1.264       .  A
O49          V52   1.905       .  S
O49          C54   1.264   1_556  A
O50          V52   1.901       .  S
O50          C53   1.265   1_556  A
V51          V52   2.089   1_554  T
C53         C437   1.475       .  S
C54         C252   1.463   1_564  S
C55         C194   1.465   1_455  S
C56         C424   1.482       .  S
O57          V65   1.897       .  S
O57          C67   1.265       .  A
O58          V65   1.899       .  S
O58          C68   1.263       .  A
O59          V65   1.901       .  S
O59          C69   1.264       .  A
O60          V65   1.900       .  S
O60          C70   1.265       .  A
O61          V66   1.900       .  S
O61          C70   1.265       .  A
O62          V66   1.903       .  S
O62          C69   1.264       .  A
O63          V66   1.898       .  S
O63          C68   1.263       .  A
O64          V66   1.901       .  S
O64          C67   1.265       .  A
V65          V66   2.084       .  T
C67         C404   1.477       .  S
C68         C222   1.456       .  S
C69         C236   1.461       .  S
C70         C384   1.483       .  S
O71          V79   1.901       .  S
O71          C81   1.266       .  A
O72          V79   1.904       .  S
O72          C82   1.264       .  A
O73          V79   1.899       .  S
O73          C83   1.262       .  A
O74          V79   1.898       .  S
O74          C84   1.264       .  A
O75          V80   1.901       .  S
O75          C84   1.266       .  A
O76          V80   1.899       .  S
O76          C83   1.263       .  A
O77          V80   1.897       .  S
O77          C82   1.262       .  A
O78          V80   1.898       .  S
O78          C81   1.264       .  A
V79          V80   2.086       .  T
C81         C364   1.484       .  S
C82         C249   1.459       .  S
C83         C221   1.457   1_455  S
C84         C397   1.485       .  S
O85          V93   1.899       .  S
O85          C95   1.265       .  A
O86          V93   1.897       .  S
O86          C96   1.262       .  A
O87          V93   1.899       .  S
O87          C97   1.263       .  A
O88          V93   1.897       .  S
O88          C98   1.265       .  A
O89          V94   1.902       .  S
O89          C98   1.265       .  A
O90          V94   1.896       .  S
O90          C97   1.262       .  A
O91          V94   1.899       .  S
O91          C96   1.263       .  A
O92          V94   1.898       .  S
O92          C95   1.265       .  A
V93          V94   2.088       .  T
C95         C337   1.482       .  S
C96         C208   1.456   1_455  S
C97         C250   1.455       .  S
C98         C357   1.479       .  S
O99         V107   1.901       .  S
O99         C109   1.265       .  A
O100        V107   1.897       .  S
O100        C110   1.263       .  A
O101        V107   1.897       .  S
O101        C111   1.262       .  A
O102        V107   1.899       .  S
O102        C112   1.265       .  A
O103        V108   1.898       .  S
O103        C112   1.265       .  A
O104        V108   1.898       .  S
O104        C111   1.262       .  A
O105        V108   1.900       .  S
O105        C110   1.262       .  A
O106        V108   1.897       .  S
O106        C109   1.264       .  A
V107        V108   2.088       .  T
C109        C377   1.479       .  S
C110        C235   1.456       .  S
C111        C207   1.454       .  S
C112        C344   1.481       .  S
O113        V121   1.905       .  S
O113        C123   1.266       .  A
O114        V121   1.903       .  S
O114        C124   1.264       .  A
O115        V121   1.902       .  S
O115        C125   1.264       .  A
O116        V121   1.905       .  S
O116        C126   1.265       .  A
O117        V122   1.899       .  S
O117        C126   1.265       .  A
O118        V122   1.902       .  S
O118        C125   1.263       .  A
O119        V122   1.900       .  S
O119        C124   1.263       .  A
O120        V122   1.896       .  S
O120        C123   1.265       .  A
V121        V122   2.084       .  T
C123        C304   1.482       .  S
C124        C195   1.460       .  S
C125        C223   1.462   1_565  S
C126        C317   1.480       .  S
O127        V135   1.899       .  S
O127        C137   1.264       .  A
O128        V135   1.897       .  S
O128        C138   1.262       .  A
O129        V135   1.899       .  S
O129        C139   1.264       .  A
O130        V135   1.905       .  S
O130        C140   1.265       .  A
O131        V136   1.897       .  S
O131        C140   1.264       .  A
O132        V136   1.900       .  S
O132        C139   1.262       .  A
O133        V136   1.906       .  S
O133        C138   1.265       .  A
O134        V136   1.902       .  S
O134        C137   1.266       .  A
V135        V136   2.086       .  T
C137        C324   1.484       .  S
C138        C224   1.461       .  S
C139        C179   1.458       .  S
C140        C277   1.478       .  S
O141        V149   1.904       .  S
O141        C151   1.266       .  A
O142        V149   1.902       .  S
O142        C152   1.264       .  A
O143        V149   1.899       .  S
O143        C153   1.263       .  A
O144        V149   1.897       .  S
O144        C154   1.264       .  A
O145        V150   1.898       .  S
O145        C154   1.265       .  A
O146        V150   1.899       .  S
O146        C153   1.263       .  A
O147        V150   1.895       .  S
O147        C152   1.261       .  A
O148        V150   1.894       .  S
O148        C151   1.263       .  A
V149        V150   2.087       .  T
C151        C297   1.480       .  S
C152        C196   1.455       .  S
C153        C209   1.457   1_565  S
C154        C264   1.479       .  S
O155        V163   1.902       .  S
O155        C165   1.265       .  A
O156        V163   1.898       .  S
O156        C166   1.263       .  A
O157        V163   1.900       .  S
O157        C167   1.263       .  A
O158        V163   1.898       .  S
O158        C168   1.265       .  A
O159        V164   1.897       .  S
O159        C168   1.264       .  A
O160        V164   1.899       .  S
O160        C167   1.263       .  A
O161        V164   1.901       .  S
O161        C166   1.263       .  A
O162        V164   1.897       .  S
O162        C165   1.265       .  A
V163        V164   2.088       .  T
C165        C284   1.487       .  S
C166        C180   1.458       .  S
C167        C210   1.458       .  S
C168        C257   1.478       .  S
O169        V177   1.899       .  S
O169        C179   1.262       .  A
O170        V177   1.895   1_554  S
O170        C180   1.262       .  A
O171        V177   1.902       .  S
O171        C181   1.264       .  A
O172        V177   1.904   1_554  S
O172        C182   1.264   1_554  A
O173        V178   1.900       .  S
O173        C182   1.263       .  A
O174        V178   1.898       .  S
O174        C181   1.262       .  A
O175        V178   1.903   1_554  S
O175        C180   1.264       .  A
O176        V178   1.900       .  S
O176        C179   1.264       .  A
V177        V178   2.090       .  T
O183        V191   1.903       .  S
O183        C193   1.264       .  A
O184        V191   1.903       .  S
O184        C194   1.264       .  A
O185        V191   1.900       .  S
O185        C195   1.263       .  A
O186        V191   1.898   1_554  S
O186        C196   1.262       .  A
O187        V192   1.898   1_554  S
O187        C196   1.263       .  A
O188        V192   1.902       .  S
O188        C195   1.263       .  A
O189        V192   1.905       .  S
O189        C194   1.264       .  A
O190        V192   1.904       .  S
O190        C193   1.264       .  A
V191        V192   2.088       .  T
O197        V205   1.899       .  S
O197        C207   1.263       .  A
O198        V205   1.900       .  S
O198        C208   1.263       .  A
O199        V205   1.900       .  S
O199        C209   1.263       .  A
O200        V205   1.899       .  S
O200        C210   1.263       .  A
O201        V206   1.900       .  S
O201        C210   1.263       .  A
O202        V206   1.899       .  S
O202        C209   1.263       .  A
O203        V206   1.897       .  S
O203        C208   1.262       .  A
O204        V206   1.896       .  S
O204        C207   1.262       .  A
V205        V206   2.091       .  T
O211        V219   1.898       .  S
O211        C221   1.262       .  A
O212        V219   1.897       .  S
O212        C222   1.262       .  A
O213        V219   1.903       .  S
O213        C223   1.264       .  A
O214        V219   1.902       .  S
O214        C224   1.264       .  A
O215        V220   1.902       .  S
O215        C224   1.263       .  A
O216        V220   1.902       .  S
O216        C223   1.264       .  A
O217        V220   1.901       .  S
O217        C222   1.264       .  A
O218        V220   1.901       .  S
O218        C221   1.264       .  A
V219        V220   2.086       .  T
O225        V233   1.900   1_554  S
O225        C235   1.263       .  A
O226        V233   1.900       .  S
O226        C236   1.263       .  A
O227        V233   1.901       .  S
O227        C237   1.263       .  A
O228        V233   1.903       .  S
O228        C238   1.264       .  A
O229        V234   1.900       .  S
O229        C238   1.263       .  A
O230        V234   1.900       .  S
O230        C237   1.263       .  A
O231        V234   1.903       .  S
O231        C236   1.264       .  A
O232        V234   1.897   1_554  S
O232        C235   1.262       .  A
V233        V234   2.088       .  T
O239        V247   1.902       .  S
O239        C249   1.264       .  A
O240        V247   1.898   1_554  S
O240        C250   1.263       .  A
O241        V247   1.903       .  S
O241        C251   1.264       .  A
O242        V247   1.903       .  S
O242        C252   1.264       .  A
O243        V248   1.902       .  S
O243        C252   1.264       .  A
O244        V248   1.904   1_554  S
O244        C251   1.264   1_554  A
O245        V248   1.898   1_554  S
O245        C250   1.262       .  A
O246        V248   1.899       .  S
O246        C249   1.263       .  A
V247        V248   2.089       .  T
C253        C254   1.405       .  A
C253        C258   1.398       .  A
C253        F271   1.358       .  S
C254        C259   1.480       .  S
C254        C255   1.405       .  A
C255        C256   1.398       .  A
C255        F260   1.358       .  S
C256        C257   1.408       .  A
C256        F272   1.358       .  S
C257        C258   1.408       .  A
C258        F261   1.358       .  S
C259        C262   1.405       .  A
C259        C266   1.405       .  A
C262        C263   1.397       .  A
C262        F267   1.358       .  S
C263        C264   1.408       .  A
C263        F269   1.358       .  S
C264        C265   1.409       .  A
C265        C266   1.398       .  A
C265        F268   1.358       .  S
C266        F270   1.358       .  S
C273        C274   1.408       .  A
C273        C278   1.402       .  A
C273        F291   1.358       .  S
C274        C279   1.486       .  S
C274        C275   1.407       .  A
C275        C276   1.397       .  A
C275        F280   1.358       .  S
C276        C277   1.406       .  A
C276        F292   1.358       .  S
C277        C278   1.407       .  A
C278        F281   1.358       .  S
C279        C282   1.406       .  A
C279        C286   1.406       .  A
C282        C283   1.401       .  A
C282        F287   1.358       .  S
C283        C284   1.411       .  A
C283        F289   1.358       .  S
C284        C285   1.410       .  A
C285        C286   1.397       .  A
C285        F288   1.358       .  S
C286        F290   1.358       .  S
C293        C294   1.406       .  A
C293        C298   1.399       .  A
C293        F311   1.358       .  S
C294        C299   1.482       .  S
C294        C295   1.404       .  A
C295        C296   1.398       .  A
C295        F300   1.358       .  S
C296        C297   1.409       .  A
C296        F312   1.358       .  S
C297        C298   1.408       .  A
C298        F301   1.358       .  S
C299        C302   1.404       .  A
C299        C306   1.406       .  A
C302        C303   1.397       .  A
C302        F307   1.358       .  S
C303        C304   1.409       .  A
C303        F309   1.358       .  S
C304        C305   1.409       .  A
C305        C306   1.401       .  A
C305        F308   1.358       .  S
C306        F310   1.358       .  S
C313        C314   1.404       .  A
C313        C318   1.398       .  A
C313        F331   1.358       .  S
C314        C319   1.481       .  S
C314        C315   1.406       .  A
C315        C316   1.402       .  A
C315        F320   1.358       .  S
C316        C317   1.409       .  A
C316        F332   1.358       .  S
C317        C318   1.407       .  A
C318        F321   1.358       .  S
C319        C322   1.405       .  A
C319        C326   1.404       .  A
C322        C323   1.399       .  A
C322        F327   1.358       .  S
C323        C324   1.409       .  A
C323        F329   1.358       .  S
C324        C325   1.411       .  A
C325        C326   1.400       .  A
C325        F328   1.358       .  S
C326        F330   1.358       .  S
C333        C334   1.405       .  A
C333        C338   1.399       .  A
C333        F351   1.358       .  S
C334        C339   1.482       .  S
C334        C335   1.405       .  A
C335        C336   1.398       .  A
C335        F340   1.358       .  S
C336        C337   1.409       .  A
C336        F352   1.358       .  S
C337        C338   1.409       .  A
C338        F341   1.358       .  S
C339        C342   1.405       .  A
C339        C346   1.405       .  A
C342        C343   1.399       .  A
C342        F347   1.358       .  S
C343        C344   1.409       .  A
C343        F349   1.358       .  S
C344        C345   1.408       .  A
C345        C346   1.398       .  A
C345        F348   1.358       .  S
C346        F350   1.358       .  S
C353        C354   1.406       .  A
C353        C358   1.401       .  A
C353        F371   1.358       .  S
C354        C359   1.482       .  S
C354        C355   1.405       .  A
C355        C356   1.397       .  A
C355        F360   1.358       .  S
C356        C357   1.407       .  A
C356        F372   1.358       .  S
C357        C358   1.408       .  A
C358        F361   1.358       .  S
C359        C362   1.404       .  A
C359        C366   1.405       .  A
C362        C363   1.400       .  A
C362        F367   1.358       .  S
C363        C364   1.411       .  A
C363        F369   1.358       .  S
C364        C365   1.409       .  A
C365        C366   1.398       .  A
C365        F368   1.358       .  S
C366        F370   1.358       .  S
C373        C374   1.406       .  A
C373        C378   1.400       .  A
C373        F391   1.358       .  S
C374        C379   1.483       .  S
C374        C375   1.406       .  A
C375        C376   1.397       .  A
C375        F380   1.358       .  S
C376        C377   1.407       .  A
C376        F392   1.358       .  S
C377        C378   1.408       .  A
C378        F381   1.358       .  S
C379        C382   1.405       .  A
C379        C386   1.405       .  A
C382        C383   1.400       .  A
C382        F387   1.358       .  S
C383        C384   1.410       .  A
C383        F389   1.358       .  S
C384        C385   1.409       .  A
C385        C386   1.397       .  A
C385        F388   1.358       .  S
C386        F390   1.358       .  S
C393        C394   1.406       .  A
C393        C398   1.400       .  A
C393        F411   1.358       .  S
C394        C399   1.485       .  S
C394        C395   1.406       .  A
C395        C396   1.398       .  A
C395        F400   1.358       .  S
C396        C397   1.410       .  A
C396        F412   1.358       .  S
C397        C398   1.410       .  A
C398        F401   1.358       .  S
C399        C402   1.407       .  A
C399        C406   1.407       .  A
C402        C403   1.400       .  A
C402        F407   1.358       .  S
C403        C404   1.407       .  A
C403        F409   1.358       .  S
C404        C405   1.406       .  A
C405        C406   1.397       .  A
C405        F408   1.358       .  S
C406        F410   1.358       .  S
C413        C414   1.407   1_556  A
C413        C418   1.398       .  A
C413        F431   1.358       .  S
C414        C419   1.491       .  S
C414        C415   1.407       .  A
C415        C416   1.404       .  A
C415        F420   1.358       .  S
C416        C417   1.412       .  A
C416        F432   1.358       .  S
C417        C418   1.409   1_554  A
C418        F421   1.358       .  S
C419        C422   1.407   1_554  A
C419        C426   1.409       .  A
C422        C423   1.397       .  A
C422        F427   1.358       .  S
C423        C424   1.407   1_556  A
C423        F429   1.358       .  S
C424        C425   1.408       .  A
C425        C426   1.404       .  A
C425        F428   1.358       .  S
C426        F430   1.358       .  S
C433        C434   1.406       .  A
C433        C438   1.399   1_554  A
C433        F451   1.358   1_554  S
C434        C439   1.483       .  S
C434        C435   1.407       .  A
C435        C436   1.402       .  A
C435        F440   1.358       .  S
C436        C437   1.405       .  A
C436        F452   1.358       .  S
C437        C438   1.405   1_554  A
C438        F441   1.358       .  S
C439        C442   1.405       .  A
C439        C446   1.403   1_554  A
C442        C443   1.403       .  A
C442        F447   1.358       .  S
C443        C444   1.413       .  A
C443        F449   1.358       .  S
C444        C445   1.411   1_554  A
C445        C446   1.398       .  A
C445        F448   1.358       .  S
C446        F450   1.358       .  S
C453        C454   1.404   1_556  A
C453        C458   1.398       .  A
C453        F471   1.358       .  S
C454        C459   1.482       .  S
C454        C455   1.405       .  A
C455        C456   1.402       .  A
C455        F460   1.358       .  S
C456        C457   1.410       .  A
C456        F472   1.358       .  S
C457        C458   1.410   1_554  A
C458        F461   1.358       .  S
C459        C462   1.405   1_554  A
C459        C466   1.405       .  A
C462        C463   1.399       .  A
C462        F467   1.358       .  S
C463        C464   1.408   1_556  A
C463        F469   1.358       .  S
C464        C465   1.408       .  A
C465        C466   1.400       .  A
C465        F468   1.358       .  S
C466        F470   1.358       .  S
C473        C474   1.406       .  A
C473        C478   1.401       .  A
C473        F491   1.358       .  S
C474        C479   1.483       .  S
C474        C475   1.405   1_554  A
C475        C476   1.397       .  A
C475        F480   1.358       .  S
C476        C477   1.407   1_556  A
C476        F492   1.358       .  S
C477        C478   1.409       .  A
C478        F481   1.358       .  S
C479        C482   1.404       .  A
C479        C486   1.406   1_554  A
C482        C483   1.400       .  A
C482        F487   1.358       .  S
C483        C484   1.411       .  A
C483        F489   1.358       .  S
C484        C485   1.408   1_554  A
C485        C486   1.399       .  A
C485        F488   1.358       .  S
C486        F490   1.358       .  S
