geometry optimzed in LAMMPS
_audit_creation_date              2020-12-01 
_audit_creation_method            'lammps2cif' 
_symmetry_space_group_name_H-M    'P1' 
_symmetry_Int_Tables_number       1 
_symmetry_cell_setting            triclinic 
loop_ 
_symmetry_equiv_pos_as_xyz 
  x,y,z 
_cell_length_a                    50.0158335 
_cell_length_b                    50.0079910040815 
_cell_length_c                    49.945253204334854 
_cell_angle_alpha                 90.16156870939213 
_cell_angle_beta                  89.86162022937192 
_cell_angle_gamma                 90.164386507362 
loop_ 
_atom_site_label 
_atom_site_type_symbol 
_atom_site_fract_x 
_atom_site_fract_y 
_atom_site_fract_z 
_atom_site_charge 
O1          O  0.52760190  0.66584993  0.96791854    -0.74800
O2          O  0.47256633  0.71903473  0.96799378    -0.74800
O3          O  0.52732726  0.71990004  0.96801324    -0.74800
O4          O  0.47329776  0.66500592  0.96812603    -0.74900
O5          O  0.47267701  0.66602273  0.01273023    -0.74800
O6          O  0.52763517  0.71945433  0.01260518    -0.74800
O7          O  0.47310251  0.72002377  0.01260063    -0.74800
O8          O  0.52692503  0.66533532  0.01252545    -0.74800
Ni9        Ni  0.50020655  0.69252859  0.96642344     1.25400
Ni10       Ni  0.50010571  0.69277994  0.01418422     1.25400
C11         C  0.53624898  0.65666058  0.99018899     0.87400
C12         C  0.46324321  0.72780733  0.99026914     0.87400
C13         C  0.53699004  0.72814492  0.99035360     0.87400
C14         C  0.46390345  0.65663607  0.99052163     0.87500
C15         C  0.85634970  0.68784470  0.99995943    -0.02800
C16         C  0.71156609  0.83358519  0.99591569    -0.02800
O17         O  0.74183191  0.45029827  0.01193594    -0.74800
O18         O  0.68865811  0.50534314  0.01150918    -0.74800
O19         O  0.68787394  0.45101920  0.01248519    -0.74800
O20         O  0.74270406  0.50489758  0.01084433    -0.74900
O21         O  0.74174368  0.50436184  0.96623437    -0.74800
O22         O  0.68764729  0.44986390  0.96788018    -0.74800
O23         O  0.68769822  0.50395836  0.96691901    -0.74800
O24         O  0.74178333  0.44934276  0.96735591    -0.74800
Ni25       Ni  0.71536109  0.47792685  0.01325694     1.25400
Ni26       Ni  0.71483462  0.47684321  0.96550819     1.25400
C27         C  0.75000810  0.44008606  0.98982417     0.87400
C28         C  0.67927039  0.51365679  0.98918095     0.87400
C29         C  0.67870061  0.44155265  0.99044055     0.87400
C30         C  0.75055231  0.51421854  0.98825450     0.87500
C31         C  0.71055670  0.12367256  0.99761999    -0.02800
C32         C  0.85930897  0.26696165  0.99910474    -0.02800
O33         O  0.47124187  0.23803148  0.02234286    -0.74800
O34         O  0.52717147  0.29025168  0.01812742    -0.74800
O35         O  0.47327406  0.29173943  0.01936968    -0.74800
O36         O  0.52601415  0.23612535  0.02085430    -0.74900
O37         O  0.52536386  0.23417188  0.97629785    -0.74800
O38         O  0.47164607  0.28866423  0.97486735    -0.74800
O39         O  0.52600909  0.28819435  0.97355679    -0.74800
O40         O  0.47079885  0.23469199  0.97780716    -0.74800
Ni41       Ni  0.49950918  0.26399321  0.02174692     1.25400
Ni42       Ni  0.49843489  0.26126835  0.97404504     1.25400
C43         C  0.46120364  0.22840965  0.00078873     0.87400
C44         C  0.53553802  0.29818921  0.99522392     0.87400
C45         C  0.46363438  0.29924244  0.99686491     0.87400
C46         C  0.53501644  0.22653055  0.99874751     0.87500
C47         C  0.14844644  0.26372548  0.00668219    -0.02800
C48         C  0.29023630  0.11560360  0.00402245    -0.02800
C49         C  0.13722305  0.68212254  0.00810429    -0.02800
C50         C  0.28550084  0.82467854  0.00346308    -0.02800
O51         O  0.25696961  0.44957137  0.97653701    -0.74800
O52         O  0.30994783  0.50500868  0.97430707    -0.74800
O53         O  0.31101455  0.45071599  0.97447309    -0.74800
O54         O  0.25585342  0.50399310  0.97657910    -0.74900
O55         O  0.25783744  0.50419239  0.02114248    -0.74800
O56         O  0.31218373  0.45062540  0.01907463    -0.74800
O57         O  0.31204957  0.50481108  0.01887231    -0.74800
O58         O  0.25833942  0.44997095  0.02112316    -0.74800
Ni59       Ni  0.28335058  0.47733567  0.97388050     1.25400
Ni60       Ni  0.28513145  0.47745926  0.02161989     1.25400
C61         C  0.24925855  0.44025732  0.99916515     0.87400
C62         C  0.31989846  0.51395275  0.99619857     0.87400
C63         C  0.32049900  0.44168438  0.99650036     0.87400
C64         C  0.24790683  0.51304900  0.99928627     0.87500
O65         O  0.53197969  0.94718680  0.74468900    -0.74800
O66         O  0.47561239  0.94834555  0.69255029    -0.74800
O67         O  0.52968463  0.94961438  0.69065148    -0.74800
O68         O  0.47730714  0.94577135  0.74654308    -0.74900
O69         O  0.47607113  0.99026647  0.74861672    -0.74800
O70         O  0.52941118  0.99410367  0.69331004    -0.74800
O71         O  0.47519456  0.99286613  0.69427233    -0.74800
O72         O  0.53061864  0.99163075  0.74746099    -0.74800
Ni73       Ni  0.50368336  0.94616604  0.71863348     1.25400
Ni74       Ni  0.50277484  0.99379902  0.72107590     1.25400
C75         C  0.54104570  0.96925759  0.75424673     0.87400
C76         C  0.46631436  0.97080669  0.68453225     0.87400
C77         C  0.53818552  0.97244790  0.68270236     0.87400
C78         C  0.46744712  0.96734292  0.75627842     0.87500
C79         C  0.86097591  0.98115852  0.70615572    -0.02800
C80         C  0.71782192  0.98105017  0.85429041    -0.02800
O81         O  0.74093023  0.95950764  0.47209857    -0.74800
O82         O  0.68736341  0.95736513  0.52691945    -0.74800
O83         O  0.68702710  0.95755515  0.47246677    -0.74800
O84         O  0.74134556  0.95937459  0.52654252    -0.74900
O85         O  0.73991396  0.00389275  0.52679539    -0.74800
O86         O  0.68542205  0.00208290  0.47288235    -0.74800
O87         O  0.68571723  0.00190541  0.52709991    -0.74800
O88         O  0.73937998  0.00403278  0.47218062    -0.74800
Ni89       Ni  0.71424676  0.95688065  0.49951641     1.25400
Ni90       Ni  0.71261074  0.00456381  0.49978037     1.25400
C91         C  0.74855025  0.98206779  0.46262091     0.87400
C92         C  0.67768074  0.97926826  0.53606486     0.87400
C93         C  0.67740923  0.97954246  0.46357337     0.87400
C94         C  0.74935077  0.98190718  0.53590229     0.87500
C95         C  0.15062690  0.97122784  0.71154778    -0.02800
C96         C  0.29329787  0.97250787  0.85999190    -0.02800
O97         O  0.26510099  0.94587181  0.52740480    -0.74800
O98         O  0.31930061  0.94790039  0.47290995    -0.74800
O99         O  0.31929399  0.94765126  0.52730273    -0.74800
O100        O  0.26531377  0.94612746  0.47262205    -0.74900
O101        O  0.26459426  0.99065974  0.47267002    -0.74800
O102        O  0.31755944  0.99216410  0.52816020    -0.74800
O103        O  0.31850752  0.99243591  0.47368232    -0.74800
O104        O  0.26359889  0.99038205  0.52736719    -0.74800
Ni105      Ni  0.29224125  0.94530530  0.50007170     1.25400
Ni106      Ni  0.29095742  0.99297360  0.50048881     1.25400
C107        C  0.25578447  0.96785096  0.53681172     0.87400
C108        C  0.32776239  0.97048438  0.46418242     0.87400
C109        C  0.32722296  0.97013711  0.53688720     0.87400
C110        C  0.25669103  0.96821761  0.46297459     0.87500
C111        C  0.28716981  0.96671239  0.14730983    -0.02800
C112        C  0.14089063  0.96965966  0.29432699    -0.02800
C113        C  0.71227673  0.97593854  0.13912053    -0.02800
C114        C  0.85226189  0.98082862  0.28765632    -0.02800
O115        O  0.47572841  0.95297736  0.25404259    -0.74800
O116        O  0.53105162  0.95483537  0.30675436    -0.74800
O117        O  0.47710576  0.95274077  0.30818411    -0.74800
O118        O  0.53019472  0.95543653  0.25250092    -0.74900
O119        O  0.52861657  0.99996756  0.25346442    -0.74800
O120        O  0.47506938  0.99728600  0.30821559    -0.74800
O121        O  0.52940735  0.99938049  0.30746323    -0.74800
O122        O  0.47403667  0.99749756  0.25433297    -0.74800
Ni123      Ni  0.50359898  0.95241970  0.28025331     1.25400
Ni124      Ni  0.50174020  0.00011393  0.28080444     1.25400
C125        C  0.46512207  0.97484441  0.24611248     0.87400
C126        C  0.53922929  0.97732439  0.31598396     0.87400
C127        C  0.46727033  0.97462792  0.31726567     0.87400
C128        C  0.53872867  0.97824492  0.24438987     0.87500
O129        O  0.97819228  0.44671685  0.74421995    -0.74800
O130        O  0.97688676  0.50105724  0.69031377    -0.74800
O131        O  0.97608429  0.44673683  0.69028771    -0.74800
O132        O  0.97889486  0.50176529  0.74405643    -0.74900
O133        O  0.02336292  0.50194633  0.74141429    -0.74800
O134        O  0.02061517  0.44539041  0.68946710    -0.74800
O135        O  0.02136614  0.49959909  0.68768403    -0.74800
O136        O  0.02273065  0.44701079  0.74327140    -0.74800
Ni137      Ni  0.97592915  0.47406556  0.71741725     1.25400
Ni138      Ni  0.02359340  0.47346533  0.71552648     1.25400
C139        C  0.00066112  0.43706161  0.75179100     0.87400
C140        C  0.99894768  0.50930588  0.68014136     0.87400
C141        C  0.99790943  0.43681795  0.68117463     0.87400
C142        C  0.00155077  0.51205629  0.75036516     0.87500
C143        C  0.00326062  0.83352416  0.71118010    -0.02800
C144        C  0.00175626  0.68729899  0.85574810    -0.02800
O145        O  0.97255890  0.71548920  0.53090940    -0.74800
O146        O  0.97280511  0.66213196  0.47595508    -0.74800
O147        O  0.97355042  0.66159848  0.53020155    -0.74800
O148        O  0.97209133  0.71602847  0.47652397    -0.74900
O149        O  0.01663245  0.71620187  0.47534601    -0.74800
O150        O  0.01808739  0.66317826  0.53039637    -0.74800
O151        O  0.01736621  0.66199050  0.47602568    -0.74800
O152        O  0.01707485  0.71731072  0.52990046    -0.74800
Ni153      Ni  0.97120213  0.68882709  0.50342299     1.25400
Ni154      Ni  0.01890557  0.68974530  0.50288524     1.25400
C155        C  0.99464613  0.72497490  0.53978555     0.87400
C156        C  0.99502727  0.65314107  0.46693490     0.87400
C157        C  0.99605426  0.65356291  0.53933725     0.87400
C158        C  0.99412996  0.72463850  0.46659716     0.87500
C159        C  0.99334353  0.68497255  0.14941014    -0.02800
C160        C  0.99070234  0.83160991  0.29424436    -0.02800
O161        O  0.00894742  0.44772927  0.25762700    -0.74800
O162        O  0.01070072  0.50151392  0.31244985    -0.74800
O163        O  0.01257923  0.44720598  0.31180766    -0.74800
O164        O  0.00681207  0.50205963  0.25839850    -0.74900
O165        O  0.96240987  0.50081288  0.26232479    -0.74800
O166        O  0.96812736  0.44504298  0.31430726    -0.74800
O167        O  0.96635969  0.49933467  0.31623299    -0.74800
O168        O  0.96450005  0.44612689  0.26046943    -0.74800
Ni169      Ni  0.01133076  0.47468404  0.28491993     1.25400
Ni170      Ni  0.96377307  0.47277261  0.28838013     1.25400
C171        C  0.98652185  0.43765197  0.25033926     0.87400
C172        C  0.98888201  0.50937560  0.32340428     0.87400
C173        C  0.99121430  0.43689844  0.32167815     0.87400
C174        C  0.98364706  0.51098148  0.25214315     0.87500
C175        C  0.01182504  0.11878740  0.71136445    -0.02800
C176        C  0.00903467  0.26321465  0.85825051    -0.02800
C177        C  0.99787968  0.11740125  0.28910107    -0.02800
C178        C  0.00268561  0.26384982  0.14619374    -0.02800
O179        O  0.02180423  0.23164185  0.52770658    -0.74800
O180        O  0.02018026  0.28616692  0.47384528    -0.74800
O181        O  0.01975905  0.28581279  0.52815421    -0.74800
O182        O  0.02223368  0.23236628  0.47311791    -0.74900
O183        O  0.97772234  0.23014423  0.47306451    -0.74800
O184        O  0.97523297  0.28407974  0.52813622    -0.74800
O185        O  0.97564937  0.28443290  0.47370433    -0.74800
O186        O  0.97725943  0.23014612  0.52781834    -0.74800
Ni187      Ni  0.02255013  0.25899868  0.50074768     1.25400
Ni188      Ni  0.97487312  0.25707107  0.50064183     1.25400
C189        C  0.99978913  0.22240379  0.53715711     0.87400
C190        C  0.99765611  0.29422687  0.46479257     0.87400
C191        C  0.99715605  0.29381690  0.53725281     0.87400
C192        C  0.00043243  0.22287475  0.46353586     0.87500
C193        C  0.99597418  0.13062447  0.36571296    -0.11200
C194        C  0.00294399  0.15778495  0.36749554     0.06000
C195        C  0.00974992  0.17145197  0.34399755    -0.09900
C196        C  0.00854883  0.15872071  0.31914041    -0.11600
C197        C  0.99996372  0.13181151  0.31671627    -0.01400
C198        C  0.99527060  0.11764188  0.34075799    -0.10500
C199        C  0.00317133  0.17223677  0.39355501     0.06000
H200        H  0.01566917  0.19229320  0.34478550     0.07900
H201        H  0.01473778  0.17030548  0.30198508     0.11400
H202        H  0.99017389  0.09659101  0.34010063     0.11600
H203        H  0.99130973  0.11940073  0.38364487     0.07900
C204        C  0.98105246  0.17113123  0.41095658    -0.11200
C205        C  0.98019566  0.18721134  0.43402778    -0.10500
C206        C  0.00170595  0.20423500  0.44039800    -0.01400
C207        C  0.02420932  0.20449758  0.42348157    -0.11600
C208        C  0.02483906  0.18886603  0.40025318    -0.10000
H209        H  0.96400356  0.15862856  0.40614665     0.07900
H210        H  0.96260597  0.18657836  0.44669744     0.11600
H211        H  0.04103235  0.21751002  0.42771514     0.11400
H212        H  0.04218428  0.19002341  0.38727613     0.07900
C213        C  0.98097747  0.17708893  0.24373947    -0.11200
C214        C  0.00143791  0.17684354  0.22466622     0.06000
C215        C  0.02090544  0.15676880  0.22564672    -0.09900
C216        C  0.01999815  0.13715145  0.24564221    -0.11600
C217        C  0.00019665  0.13793920  0.26589122    -0.01400
C218        C  0.98037717  0.15801361  0.26402526    -0.10500
C219        C  0.00230337  0.19777158  0.20393548     0.06000
H220        H  0.03656696  0.15605289  0.21064829     0.07900
H221        H  0.03466865  0.12141975  0.24468347     0.11400
H222        H  0.96443596  0.15904466  0.27870781     0.11600
H223        H  0.96566244  0.19235218  0.24316470     0.07900
C224        C  0.98291420  0.19844218  0.18378130    -0.11200
C225        C  0.98286402  0.21903756  0.16486716    -0.10500
C226        C  0.00155778  0.24026793  0.16639965    -0.01400
C227        C  0.02144237  0.23876078  0.18646841    -0.11600
C228        C  0.02180906  0.21782581  0.20493102    -0.10000
H229        H  0.96793094  0.18280379  0.18254464     0.07900
H230        H  0.96830928  0.21773506  0.14902706     0.11600
H231        H  0.03663426  0.25416968  0.18795749     0.11400
H232        H  0.03698955  0.21757430  0.22036067     0.07900
C233        C  0.00153052  0.17353846  0.65720469    -0.11200
C234        C  0.00560525  0.15915753  0.63345703     0.06000
C235        C  0.01159201  0.13185529  0.63494109    -0.09900
C236        C  0.01339663  0.11917294  0.65985020    -0.11600
C237        C  0.01076448  0.13370028  0.68408073    -0.01400
C238        C  0.00396652  0.16109066  0.68207957    -0.10500
C239        C  0.00320152  0.17284995  0.60731610     0.06000
H240        H  0.01428356  0.12023315  0.61680799     0.07900
H241        H  0.01714199  0.09786320  0.66026632     0.11400
H242        H  0.99958490  0.17309104  0.69954142     0.11600
H243        H  0.99644539  0.19456934  0.65649587     0.07900
C244        C  0.02476642  0.17335282  0.58927452    -0.11200
C245        C  0.02347183  0.18886840  0.56598455    -0.10500
C246        C  0.00033958  0.20362772  0.56005646    -0.01400
C247        C  0.97832044  0.20200126  0.57753217    -0.11600
C248        C  0.97985897  0.18701335  0.60106916    -0.10000
H249        H  0.04299307  0.16263861  0.59377634     0.07900
H250        H  0.04072644  0.18972364  0.55287103     0.11600
H251        H  0.96029102  0.21326132  0.57361038     0.11400
H252        H  0.96296776  0.18682290  0.61468474     0.07900
C253        C  0.98753984  0.21363827  0.80265579    -0.11200
C254        C  0.01098695  0.19906110  0.79772308     0.06000
C255        C  0.03408139  0.20550622  0.81222140    -0.09900
C256        C  0.03365582  0.22565211  0.83168344    -0.11600
C257        C  0.00990225  0.23985613  0.83764965    -0.01400
C258        C  0.98719710  0.23412874  0.82183900    -0.10500
C259        C  0.01162637  0.17782314  0.77685488     0.06000
H260        H  0.05258603  0.19492298  0.80846660     0.07900
H261        H  0.05237726  0.23038042  0.84135164     0.11400
H262        H  0.96897370  0.24545707  0.82460386     0.11600
H263        H  0.96961301  0.20957341  0.79120786     0.07900
C264        C  0.99171401  0.15804100  0.77592031    -0.11200
C265        C  0.99192870  0.13841844  0.75585508    -0.10500
C266        C  0.01144647  0.13875181  0.73530669    -0.01400
C267        C  0.03222823  0.15785721  0.73745313    -0.11600
C268        C  0.03223659  0.17714619  0.75777474    -0.10000
H269        H  0.97612471  0.15755691  0.79100448     0.07900
H270        H  0.97677799  0.12305835  0.75689712     0.11600
H271        H  0.04814334  0.15829864  0.72271415     0.11400
H272        H  0.04803809  0.19199300  0.75816625     0.07900
C273        C  0.97194453  0.37867112  0.36612144    -0.11200
C274        C  0.99521577  0.37490187  0.38140253     0.06000
C275        C  0.01755705  0.39132252  0.37620421    -0.09900
C276        C  0.01649615  0.41116992  0.35650331    -0.11600
C277        C  0.99296683  0.41528659  0.34181002    -0.01400
C278        C  0.97077623  0.39871949  0.34673949    -0.10500
C279        C  0.99594447  0.35421778  0.40287266     0.06000
H280        H  0.03570842  0.38928132  0.38776345     0.07900
H281        H  0.03388863  0.42369294  0.35320195     0.11400
H282        H  0.95247133  0.40115018  0.33547415     0.11600
H283        H  0.95457894  0.36603147  0.36901763     0.07900
C284        C  0.97300313  0.34863943  0.41830400    -0.11200
C285        C  0.97352739  0.32913148  0.43830348    -0.10500
C286        C  0.99710100  0.31496121  0.44366124    -0.01400
C287        C  0.02011681  0.32064161  0.42848388    -0.11600
C288        C  0.01950872  0.33990710  0.40822789    -0.10000
H289        H  0.95464661  0.35960080  0.41520411     0.07900
H290        H  0.95552438  0.32536646  0.44979728     0.11600
H291        H  0.03853888  0.30989023  0.43198904     0.11400
H292        H  0.03743318  0.34328641  0.39651751     0.07900
C293        C  0.96553570  0.37421503  0.21420608    -0.11200
C294        C  0.98859623  0.36813462  0.19930278     0.06000
C295        C  0.01006178  0.38627538  0.19943245    -0.09900
C296        C  0.00904495  0.40939191  0.21530598    -0.11600
C297        C  0.98631429  0.41508363  0.23095753    -0.01400
C298        C  0.96428646  0.39759566  0.22965378    -0.10500
C299        C  0.99116933  0.34193600  0.18553807     0.06000
H300        H  0.02810254  0.38192519  0.18821687     0.07900
H301        H  0.02632270  0.42248218  0.21584074     0.11400
H302        H  0.94653924  0.40133949  0.24153263     0.11600
H303        H  0.94870523  0.36053642  0.21433334     0.07900
C304        C  0.99815884  0.34029281  0.15838630    -0.11200
C305        C  0.00141386  0.31533176  0.14597090    -0.10500
C306        C  0.99919101  0.29125355  0.16064529    -0.01400
C307        C  0.99103224  0.29335537  0.18774755    -0.11600
C308        C  0.98721768  0.31825251  0.19992531    -0.10000
H309        H  0.00084026  0.35833465  0.14672810     0.07900
H310        H  0.00621531  0.31477431  0.12482480     0.11600
H311        H  0.98693251  0.27592656  0.19980064     0.11400
H312        H  0.98147008  0.31901774  0.22084093     0.07900
C313        C  0.95953339  0.57582587  0.22192921    -0.11200
C314        C  0.97987594  0.58153108  0.20336318     0.06000
C315        C  0.00050063  0.56286859  0.19953469    -0.09900
C316        C  0.00145017  0.53952936  0.21491442    -0.11600
C317        C  0.98143420  0.53413557  0.23393343    -0.01400
C318        C  0.96014321  0.55220700  0.23684984    -0.10500
C319        C  0.98072697  0.60767261  0.18943623     0.06000
H320        H  0.01650208  0.56690968  0.18545375     0.07900
H321        H  0.01804802  0.52590762  0.21225411     0.11400
H322        H  0.94454308  0.54862930  0.25149743     0.11600
H323        H  0.94337978  0.58985780  0.22516086     0.07900
C324        C  0.98507688  0.60907742  0.16175368    -0.11200
C325        C  0.98797614  0.63386721  0.14915483    -0.10500
C326        C  0.98811026  0.65799338  0.16404473    -0.01400
C327        C  0.98164012  0.65628559  0.19158898    -0.11600
C328        C  0.97824107  0.63150791  0.20406181    -0.10000
H329        H  0.98638617  0.59096232  0.14989183     0.07900
H330        H  0.99134445  0.63422092  0.12773009     0.11600
H331        H  0.97900145  0.67388185  0.20385914     0.11400
H332        H  0.97434334  0.63096632  0.22539741     0.07900
C333        C  0.99169258  0.79945394  0.22332032    -0.11200
C334        C  0.99539763  0.77217160  0.22885119     0.06000
C335        C  0.99837904  0.76434164  0.25557186    -0.09900
C336        C  0.99712251  0.78301896  0.27629892    -0.11600
C337        C  0.99188828  0.81039486  0.27131565    -0.01400
C338        C  0.99055222  0.81830805  0.24418734    -0.10500
C339        C  0.99612101  0.75162293  0.20718148     0.06000
H340        H  0.00153831  0.74353814  0.26059967     0.07900
H341        H  0.00091799  0.77549909  0.29614228     0.11400
H342        H  0.98830592  0.83922693  0.23914748     0.11600
H343        H  0.99007174  0.80627506  0.20283592     0.07900
C344        C  0.97786855  0.75232349  0.18589929    -0.11200
C345        C  0.97692802  0.73154477  0.16703048    -0.10500
C346        C  0.99391809  0.70905538  0.16919078    -0.01400
C347        C  0.01346512  0.70963808  0.18954178    -0.11600
C348        C  0.01433843  0.73033582  0.20836519    -0.10000
H349        H  0.96380601  0.76864943  0.18418755     0.07900
H350        H  0.96283222  0.73351090  0.15083695     0.11600
H351        H  0.02769319  0.69345076  0.19128842     0.11400
H352        H  0.02924721  0.72957037  0.22402574     0.07900
C353        C  0.96769531  0.55743555  0.37860098    -0.11200
C354        C  0.99180343  0.57085839  0.38445520     0.06000
C355        C  0.01487443  0.56373986  0.36993757    -0.09900
C356        C  0.01391743  0.54372875  0.35031563    -0.11600
C357        C  0.98981610  0.53042568  0.34445446    -0.01400
C358        C  0.96669306  0.53759181  0.35877957    -0.10500
C359        C  0.99286738  0.59216479  0.40551554     0.06000
H360        H  0.03368771  0.57389977  0.37340847     0.07900
H361        H  0.03208425  0.53886761  0.33953856     0.11400
H362        H  0.94781335  0.52770059  0.35484520     0.11600
H363        H  0.94958557  0.56194069  0.38960190     0.07900
C364        C  0.97087475  0.60912588  0.40991971    -0.11200
C365        C  0.97165509  0.62879111  0.42986707    -0.10500
C366        C  0.99459044  0.63236515  0.44569185    -0.01400
C367        C  0.01675248  0.61577840  0.44114558    -0.11600
C368        C  0.01583061  0.59577864  0.42145310    -0.10000
H369        H  0.95307270  0.60746651  0.39774740     0.07900
H370        H  0.95433508  0.64144977  0.43269241     0.11600
H371        H  0.03463027  0.61792470  0.45316049     0.11400
H372        H  0.03300429  0.58287039  0.41906020     0.07900
C373        C  0.96835759  0.76986685  0.41180118    -0.11200
C374        C  0.99199285  0.77624736  0.39791597     0.06000
C375        C  0.01650641  0.76690638  0.40787444    -0.09900
C376        C  0.01728709  0.75089201  0.43072416    -0.11600
C377        C  0.99355835  0.74377565  0.44407373    -0.01400
C378        C  0.96912491  0.75377312  0.43460145    -0.10500
C379        C  0.99106956  0.79156245  0.37250980     0.06000
H380        H  0.03504117  0.77119927  0.39747432     0.07900
H381        H  0.03643121  0.74343845  0.43744412     0.11400
H382        H  0.95049967  0.74877034  0.44451399     0.11600
H383        H  0.94921094  0.77714782  0.40491475     0.07900
C384        C  0.97071778  0.78683579  0.35378307    -0.11200
C385        C  0.97074299  0.80008636  0.32923871    -0.10500
C386        C  0.99158131  0.81787760  0.32215721    -0.01400
C387        C  0.01094915  0.82379517  0.34191839    -0.11600
C388        C  0.01085752  0.81056274  0.36650265    -0.10000
H389        H  0.95508251  0.77236239  0.35777500     0.07900
H390        H  0.95481426  0.79583326  0.31518486     0.11600
H391        H  0.02598538  0.83902440  0.33908407     0.11400
H392        H  0.02618466  0.81545771  0.38100408     0.07900
C393        C  0.99992795  0.81949514  0.63497715    -0.11200
C394        C  0.99344039  0.79222682  0.63402991     0.06000
C395        C  0.98739874  0.77892402  0.65793339    -0.09900
C396        C  0.98956760  0.79207085  0.68251159    -0.11600
C397        C  0.99851403  0.81890591  0.68404852    -0.01400
C398        C  0.00148412  0.83287351  0.65961713    -0.10500
C399        C  0.99303835  0.77729866  0.60838237     0.06000
H400        H  0.98152581  0.75805595  0.65764453     0.07900
H401        H  0.98411077  0.78087516  0.70016851     0.11400
H402        H  0.00647388  0.85395741  0.65969437     0.11600
H403        H  0.00379851  0.83040787  0.61666790     0.07900
C404        C  0.97063032  0.76185215  0.60152305    -0.11200
C405        C  0.97097484  0.74566964  0.57870544    -0.10500
C406        C  0.99393732  0.74415898  0.56246655    -0.01400
C407        C  0.01625437  0.76002113  0.56904723    -0.11600
C408        C  0.01569563  0.77667844  0.59169092    -0.10000
H409        H  0.95295159  0.76203007  0.61409472     0.07900
H410        H  0.95349807  0.73362206  0.57429270     0.11600
H411        H  0.03420893  0.75928938  0.55691017     0.11400
H412        H  0.03329582  0.78828461  0.59676158     0.07900
C413        C  0.97987468  0.74637440  0.81042561    -0.11200
C414        C  0.00371604  0.75259080  0.79678553     0.06000
C415        C  0.02650995  0.73711144  0.80224607    -0.09900
C416        C  0.02541288  0.71608433  0.82058761    -0.11600
C417        C  0.00205127  0.71081275  0.83556014    -0.01400
C418        C  0.97901378  0.72588586  0.82942072    -0.10500
C419        C  0.00443176  0.77425894  0.77616423     0.06000
H420        H  0.04539616  0.74116794  0.79246322     0.07900
H421        H  0.04321941  0.70422935  0.82370255     0.11400
H422        H  0.95989236  0.72149930  0.83853907     0.11600
H423        H  0.96153492  0.75687895  0.80598993     0.07900
C424        C  0.98764512  0.79675611  0.77814987    -0.11200
C425        C  0.98715614  0.81611922  0.75792274    -0.10500
C426        C  0.00333844  0.81349347  0.73487064    -0.01400
C427        C  0.02169542  0.79210281  0.73422068    -0.11600
C428        C  0.02173226  0.77250093  0.75402214    -0.10000
H429        H  0.97493837  0.79961016  0.79548356     0.07900
H430        H  0.97435208  0.83323153  0.76084207     0.11600
H431        H  0.03532089  0.78992203  0.71746796     0.11400
H432        H  0.03493513  0.75560566  0.75140604     0.07900
C433        C  0.97315770  0.39006663  0.62646148    -0.11200
C434        C  0.99601335  0.37451624  0.62121972     0.06000
C435        C  0.01917330  0.37928159  0.63648021    -0.09900
C436        C  0.01971524  0.39945170  0.65589789    -0.11600
C437        C  0.99700331  0.41516575  0.66086860    -0.01400
C438        C  0.97360929  0.41005803  0.64616156    -0.10500
C439        C  0.99601538  0.35382182  0.59961256     0.06000
H440        H  0.03694959  0.36732646  0.63352646     0.07900
H441        H  0.03793754  0.40263641  0.66714998     0.11400
H442        H  0.95579685  0.42188170  0.64949666     0.11600
H443        H  0.95506937  0.38723629  0.61493111     0.07900
C444        C  0.97307414  0.33836179  0.59417532    -0.11200
C445        C  0.97329318  0.31904277  0.57378902    -0.10500
C446        C  0.99653227  0.31454063  0.55855842    -0.01400
C447        C  0.01941769  0.32994889  0.56398048    -0.11600
C448        C  0.01911459  0.34942990  0.58408945    -0.10000
H449        H  0.95503818  0.34089016  0.60592216     0.07900
H450        H  0.95538182  0.30736404  0.57021052     0.11600
H451        H  0.03756817  0.32715908  0.55245279     0.11400
H452        H  0.03696968  0.36130505  0.58720905     0.07900
C453        C  0.97604749  0.56780027  0.63831739    -0.11200
C454        C  0.99805874  0.57179222  0.62118193     0.06000
C455        C  0.02039990  0.55496424  0.62372013    -0.09900
C456        C  0.02072355  0.53471132  0.64291874    -0.11600
C457        C  0.99856881  0.53057437  0.65972569    -0.01400
C458        C  0.97622062  0.54728805  0.65722462    -0.10500
C459        C  0.99753999  0.59312940  0.60050717     0.06000
H460        H  0.03750592  0.55711915  0.61057890     0.07900
H461        H  0.03818634  0.52204415  0.64435730     0.11400
H462        H  0.95900518  0.54478265  0.67018284     0.11600
H463        H  0.95874188  0.58070557  0.63734334     0.07900
C464        C  0.97363564  0.59933515  0.58714702    -0.11200
C465        C  0.97313592  0.61910082  0.56747925    -0.10500
C466        C  0.99658189  0.63293404  0.56046518    -0.01400
C467        C  0.02049503  0.62683194  0.57379550    -0.11600
C468        C  0.02094167  0.60725301  0.59369277    -0.10000
H469        H  0.95533687  0.58856907  0.59149341     0.07900
H470        H  0.95441652  0.62326805  0.55749330     0.11600
H471        H  0.03885804  0.63731609  0.56899241     0.11400
H472        H  0.03959560  0.60337839  0.60389863     0.07900
C473        C  0.02636817  0.62124960  0.82256663    -0.11200
C474        C  0.00410955  0.61373188  0.80715270     0.06000
C475        C  0.98239522  0.63144310  0.80572930    -0.09900
C476        C  0.98238242  0.65529025  0.82048892    -0.11600
C477        C  0.00360981  0.66178200  0.83797982    -0.01400
C478        C  0.02632654  0.64502993  0.83737095    -0.10500
C479        C  0.00349202  0.58740784  0.79295437     0.06000
H480        H  0.96531348  0.62683499  0.79325131     0.07900
H481        H  0.96514322  0.66826676  0.81915736     0.11400
H482        H  0.04426734  0.64995804  0.84833787     0.11600
H483        H  0.04370294  0.60840616  0.82378589     0.07900
C484        C  0.02674399  0.57690612  0.78107332    -0.11200
C485        C  0.02628056  0.55201634  0.76819281    -0.10500
C486        C  0.00251311  0.53698992  0.76664959    -0.01400
C487        C  0.97925617  0.54740717  0.77857818    -0.11600
C488        C  0.97976171  0.57225031  0.79164158    -0.10000
H489        H  0.04526637  0.58815562  0.78126482     0.07900
H490        H  0.04445166  0.54488201  0.75879181     0.11600
H491        H  0.96056679  0.53646677  0.77761291     0.11400
H492        H  0.96157286  0.57949058  0.80091514     0.07900
C493        C  0.02608489  0.37886102  0.79316576    -0.11200
C494        C  0.00284675  0.36318830  0.79619219     0.06000
C495        C  0.97867226  0.37297505  0.78572693    -0.09900
C496        C  0.97778978  0.39755930  0.77249053    -0.11600
C497        C  0.00110972  0.41290646  0.76899205    -0.01400
C498        C  0.02525385  0.40333171  0.77961198    -0.10500
C499        C  0.00369779  0.33701263  0.81053726     0.06000
H500        H  0.96043907  0.36135791  0.78713775     0.07900
H501        H  0.95894228  0.40408008  0.76415326     0.11400
H502        H  0.04361543  0.41459805  0.77715986     0.11600
H503        H  0.04496297  0.37229393  0.80136652     0.07900
C504        C  0.02614986  0.32020617  0.80877255    -0.11200
C505        C  0.02730070  0.29639157  0.82344218    -0.10500
C506        C  0.00634060  0.28886364  0.84088799    -0.01400
C507        C  0.98296211  0.30471189  0.84059930    -0.11600
C508        C  0.98194218  0.32859271  0.82623590    -0.10000
H509        H  0.04290626  0.32543033  0.79604992     0.07900
H510        H  0.04506423  0.28415258  0.82187631     0.11600
H511        H  0.96514883  0.29899494  0.85143915     0.11400
H512        H  0.96411071  0.34069135  0.82791447     0.07900
C513        C  0.87929711  0.90823448  0.27884492    -0.11200
C514        C  0.90257736  0.90909380  0.29471243     0.06000
C515        C  0.90803957  0.93290725  0.30883724    -0.09900
C516        C  0.89112626  0.95482952  0.30717136    -0.11600
C517        C  0.86915856  0.95495225  0.28959483    -0.01400
C518        C  0.86290812  0.93082984  0.27619931    -0.10500
C519        C  0.92177603  0.88606804  0.29605360     0.06000
H520        H  0.92583442  0.93531720  0.32081113     0.07900
H521        H  0.89605043  0.97253111  0.31872475     0.11400
H522        H  0.84514960  0.92903756  0.26403371     0.11600
H523        H  0.87350888  0.89014622  0.26844763     0.07900
C524        C  0.92387972  0.86696856  0.27530154    -0.11200
C525        C  0.94436593  0.84778553  0.27528433    -0.10500
C526        C  0.96448013  0.84831103  0.29507465    -0.01400
C527        C  0.96089087  0.86617413  0.31674837    -0.11600
C528        C  0.93963973  0.88397969  0.31761718    -0.10000
H529        H  0.91037959  0.86722589  0.25844448     0.07900
H530        H  0.94461414  0.83347472  0.25912112     0.11600
H531        H  0.97526253  0.86701161  0.33290327     0.11400
H532        H  0.93797581  0.89664520  0.33509745     0.07900
C533        C  0.87741054  0.05386475  0.28176649    -0.11200
C534        C  0.90420392  0.05028057  0.27415202     0.06000
C535        C  0.91297867  0.02451433  0.26747948    -0.09900
C536        C  0.89618719  0.00253791  0.27059169    -0.11600
C537        C  0.87020997  0.00541857  0.28137085    -0.01400
C538        C  0.86033139  0.03172233  0.28436480    -0.10500
C539        C  0.92400320  0.07238370  0.27521560     0.06000
H540        H  0.93336145  0.02108220  0.26098513     0.07900
H541        H  0.90403567  0.98322729  0.26488216     0.11400
H542        H  0.83980112  0.03499303  0.29044805     0.11600
H543        H  0.86986816  0.07366928  0.28618928     0.07900
C544        C  0.94384609  0.07430711  0.25546259    -0.11200
C545        C  0.96649731  0.08998142  0.25972456    -0.10500
C546        C  0.97026805  0.10397067  0.28407064    -0.01400
C547        C  0.94844627  0.10494379  0.30208781    -0.11600
C548        C  0.92578657  0.08893320  0.29790356    -0.10000
H549        H  0.94258102  0.06243249  0.23733694     0.07900
H550        H  0.98212720  0.08974576  0.24467779     0.11600
H551        H  0.94884066  0.11727880  0.31983308     0.11400
H552        H  0.91042736  0.08830353  0.31321151     0.07900
C553        C  0.59211854  0.95831592  0.19402436    -0.11200
C554        C  0.60824647  0.98134941  0.19365267     0.06000
C555        C  0.60035446  0.00382288  0.20853164    -0.09900
C556        C  0.57705980  0.00311898  0.22400573    -0.11600
C557        C  0.56145841  0.97971657  0.22537334    -0.01400
C558        C  0.56905286  0.95739786  0.20998255    -0.10500
C559        C  0.63424590  0.98131067  0.17944330     0.06000
H560        H  0.61249140  0.02179952  0.20849593     0.07900
H561        H  0.57185387  0.02058889  0.23575275     0.11400
H562        H  0.55743294  0.93910586  0.21065220     0.11600
H563        H  0.59797016  0.94069317  0.18282273     0.07900
C564        C  0.65765484  0.98781636  0.19335179    -0.11200
C565        C  0.68252002  0.98643054  0.18070050    -0.10500
C566        C  0.68485658  0.97799504  0.15370712    -0.01400
C567        C  0.66085585  0.97390460  0.13933228    -0.11600
C568        C  0.63596705  0.97468329  0.15221772    -0.10000
H569        H  0.65673674  0.99364173  0.21424321     0.07900
H570        H  0.69972482  0.99244972  0.19229608     0.11600
H571        H  0.66148603  0.96918685  0.11816833     0.11400
H572        H  0.61803033  0.97032025  0.14089455     0.07900
C573        C  0.75604274  0.95855796  0.19973438    -0.11200
C574        C  0.77635409  0.97779914  0.19870289     0.06000
C575        C  0.77741778  0.99555009  0.17707645    -0.09900
C576        C  0.75743668  0.99506846  0.15747555    -0.11600
C577        C  0.73576570  0.97690967  0.15929853    -0.01400
C578        C  0.73645073  0.95767833  0.17996195    -0.10500
C579        C  0.79571925  0.97969916  0.22082462     0.06000
H580        H  0.79338665  0.01016261  0.17569437     0.07900
H581        H  0.75932793  0.00884814  0.14097277     0.11400
H582        H  0.72093849  0.94258716  0.18139422     0.11600
H583        H  0.75525091  0.94431050  0.21601953     0.07900
C584        C  0.78667042  0.98561654  0.24669339    -0.11200
C585        C  0.80449228  0.98644410  0.26812399    -0.10500
C586        C  0.83180708  0.98015390  0.26446720    -0.01400
C587        C  0.84081027  0.97544712  0.23800765    -0.11600
C588        C  0.82297848  0.97514866  0.21647375    -0.10000
H589        H  0.76573440  0.98990504  0.25024204     0.07900
H590        H  0.79659943  0.99241034  0.28737049     0.11600
H591        H  0.86174983  0.97161057  0.23408695     0.11400
H592        H  0.83035203  0.97084559  0.19651881     0.07900
C593        C  0.08170117  0.01591752  0.31187072    -0.11200
C594        C  0.08307887  0.03603136  0.29244767     0.06000
C595        C  0.10386180  0.03524146  0.27353061    -0.09900
C596        C  0.12265918  0.01441311  0.27372872    -0.11600
C597        C  0.12172971  0.99422240  0.29353691    -0.01400
C598        C  0.10064471  0.99549333  0.31245243    -0.10500
C599        C  0.06185640  0.05675982  0.29122599     0.06000
H600        H  0.10498192  0.05024872  0.25797205     0.07900
H601        H  0.13728398  0.01409225  0.25782695     0.11400
H602        H  0.09876141  0.98029061  0.32775069     0.11600
H603        H  0.06583097  0.01597121  0.32666721     0.07900
C604        C  0.03494968  0.04900767  0.29148400    -0.11200
C605        C  0.01462479  0.06804906  0.29078308    -0.10500
C606        C  0.02037350  0.09580286  0.28925634    -0.01400
C607        C  0.04760842  0.10338156  0.29060084    -0.11600
C608        C  0.06805582  0.08415644  0.29084649    -0.10000
H609        H  0.02957768  0.02802013  0.29231618     0.07900
H610        H  0.99441306  0.06054070  0.29218783     0.11600
H611        H  0.05306055  0.12434751  0.29103948     0.11400
H612        H  0.08871071  0.09068408  0.29135591     0.07900
C613        C  0.03411836  0.89473591  0.28083246    -0.11200
C614        C  0.05996681  0.88503672  0.28509870     0.06000
C615        C  0.06354079  0.85758080  0.28950055    -0.09900
C616        C  0.04139562  0.84036923  0.29080107    -0.11600
C617        C  0.01504559  0.85045511  0.28947109    -0.01400
C618        C  0.01205225  0.87778428  0.28275859    -0.10500
C619        C  0.08267110  0.90408901  0.28617341     0.06000
H620        H  0.08342576  0.84953379  0.29221393     0.07900
H621        H  0.04472694  0.81930800  0.29447043     0.11400
H622        H  0.99271690  0.88659887  0.27913615     0.11600
H623        H  0.03085799  0.91576855  0.27689197     0.07900
C624        C  0.08579304  0.92346047  0.26621153    -0.11200
C625        C  0.10493774  0.94362712  0.26885937    -0.10500
C626        C  0.12177970  0.94515501  0.29154731    -0.01400
C627        C  0.11838942  0.92542351  0.31154963    -0.11600
C628        C  0.09939690  0.90498771  0.30864197    -0.10000
H629        H  0.07297316  0.92331683  0.24876279     0.07900
H630        H  0.10641524  0.95853891  0.25323343     0.11600
H631        H  0.12939579  0.92601303  0.33007918     0.11400
H632        H  0.09680801  0.89064779  0.32466428     0.07900
C633        C  0.40207519  0.99545952  0.20981914    -0.11200
C634        C  0.39226362  0.97074345  0.20059134     0.06000
C635        C  0.40771091  0.94768443  0.20458401    -0.09900
C636        C  0.43193546  0.94916045  0.21846691    -0.11600
C637        C  0.44133582  0.97377153  0.22847430    -0.01400
C638        C  0.42637320  0.99697673  0.22352491    -0.10500
C639        C  0.36568339  0.96897587  0.18749724     0.06000
H640        H  0.40060355  0.92835651  0.19777864     0.07900
H641        H  0.44294124  0.93089068  0.22197329     0.11400
H642        H  0.43300026  0.01623476  0.23097503     0.11600
H643        H  0.39081039  0.01363052  0.20662659     0.07900
C644        C  0.34386833  0.98323140  0.19780594    -0.11200
C645        C  0.31892557  0.98206532  0.18532507    -0.10500
C646        C  0.31457463  0.96607712  0.16231705    -0.01400
C647        C  0.33712166  0.95241534  0.15177788    -0.11600
C648        C  0.36202537  0.95349198  0.16438580    -0.10000
H649        H  0.34608894  0.99541614  0.21562856     0.07900
H650        H  0.30328647  0.99415895  0.19386788     0.11600
H651        H  0.33604907  0.94176580  0.13294943     0.11400
H652        H  0.37871108  0.94292561  0.15547801     0.07900
C653        C  0.23480326  0.99331174  0.19922441    -0.11200
C654        C  0.22485236  0.96967753  0.21068186     0.06000
C655        C  0.23570556  0.94530706  0.20197330    -0.09900
C656        C  0.25501119  0.94443476  0.18174478    -0.11600
C657        C  0.26439004  0.96788227  0.16897172    -0.01400
C658        C  0.25451974  0.99245320  0.17922498    -0.10500
C659        C  0.20333363  0.97012739  0.23157614     0.06000
H660        H  0.22961208  0.92664226  0.21109467     0.07900
H661        H  0.26245170  0.92495940  0.17668570     0.11400
H662        H  0.26243202  0.01134494  0.17228437     0.11600
H663        H  0.22733199  0.01259753  0.20560111     0.07900
C664        C  0.20157953  0.99080741  0.25065825    -0.11200
C665        C  0.18144522  0.99063073  0.27028766    -0.10500
C666        C  0.16214415  0.96994809  0.27142648    -0.01400
C667        C  0.16476060  0.94886317  0.25264262    -0.11600
C668        C  0.18451029  0.94928920  0.23287148    -0.10000
H669        H  0.21607997  0.00690785  0.25082914     0.07900
H670        H  0.18093711  0.00672767  0.28482875     0.11600
H671        H  0.15206779  0.93140136  0.25309206     0.11400
H672        H  0.18495386  0.93303076  0.21853005     0.07900
C673        C  0.37609731  0.94792072  0.41006646    -0.11200
C674        C  0.38692865  0.97231956  0.40112512     0.06000
C675        C  0.37803018  0.99616733  0.41320893    -0.09900
C676        C  0.35885531  0.99560177  0.43364730    -0.11600
C677        C  0.34824512  0.97116963  0.44266915    -0.01400
C678        C  0.35710519  0.94734933  0.43063346    -0.10500
C679        C  0.40747033  0.97283052  0.37942104     0.06000
H680        H  0.38617133  0.01531315  0.40719772     0.07900
H681        H  0.35247154  0.01432810  0.44248986     0.11400
H682        H  0.34918835  0.92819236  0.43693644     0.11600
H683        H  0.38199729  0.92918814  0.40093065     0.07900
C684        C  0.42658314  0.95230437  0.37721355    -0.11200
C685        C  0.44576462  0.95268059  0.35679849    -0.10500
C686        C  0.44663453  0.97385015  0.33845288    -0.01400
C687        C  0.42774562  0.99446101  0.34064481    -0.11600
C688        C  0.40822829  0.99383928  0.36073054    -0.10000
H689        H  0.42702675  0.93609008  0.39150947     0.07900
H690        H  0.46028328  0.93668353  0.35569420     0.11600
H691        H  0.42782824  0.01089161  0.32655777     0.11400
H692        H  0.39356273  0.00970145  0.36139795     0.07900
C693        C  0.21681597  0.99169104  0.40296605    -0.11200
C694        C  0.20599817  0.96768423  0.39291125     0.06000
C695        C  0.21145438  0.94377540  0.40664965    -0.09900
C696        C  0.22744331  0.94391115  0.42970605    -0.11600
C697        C  0.23825662  0.96797370  0.43964106    -0.01400
C698        C  0.23259314  0.99184757  0.42603146    -0.10500
C699        C  0.18913666  0.96783537  0.36824467     0.06000
H700        H  0.20321469  0.92496514  0.39969261     0.07900
H701        H  0.23145328  0.92514389  0.43966235     0.11400
H702        H  0.24085335  0.01070223  0.43285933     0.11600
H703        H  0.21356093  0.01042482  0.39268740     0.07900
C704        C  0.17161836  0.98913278  0.36334819    -0.11200
C705        C  0.15634163  0.99003483  0.34000050    -0.10500
C706        C  0.15725765  0.96913754  0.32085456    -0.01400
C707        C  0.17548582  0.94811848  0.32563131    -0.11600
C708        C  0.19092224  0.94732005  0.34902517    -0.10000
H709        H  0.16965584  0.00532689  0.37764207     0.07900
H710        H  0.14427812  0.00764191  0.33716092     0.11600
H711        H  0.17762914  0.93211108  0.31114038     0.11400
H712        H  0.20467935  0.93088788  0.35177135     0.07900
C713        C  0.06120052  0.06801332  0.74106650    -0.11200
C714        C  0.08076309  0.06551603  0.72102271     0.06000
C715        C  0.08052243  0.08376068  0.69968271    -0.09900
C716        C  0.05965704  0.10227945  0.69707088    -0.11600
C717        C  0.03799158  0.10243468  0.71533953    -0.01400
C718        C  0.04044379  0.08645423  0.73849191    -0.10500
C719        C  0.09941797  0.04230236  0.72103648     0.06000
H720        H  0.09572564  0.08283208  0.68423874     0.07900
H721        H  0.06042462  0.11579078  0.68027144     0.11400
H722        H  0.02503453  0.08687998  0.75375905     0.11600
H723        H  0.06134521  0.05492131  0.75829984     0.07900
C724        C  0.12646421  0.04492545  0.71378821    -0.11200
C725        C  0.14296558  0.02230154  0.71193259    -0.10500
C726        C  0.13253299  0.99624985  0.71568504    -0.01400
C727        C  0.10584123  0.99423429  0.72493289    -0.11600
C728        C  0.08960594  0.01675763  0.72726065    -0.10000
H729        H  0.13482522  0.06444829  0.70950150     0.07900
H730        H  0.16373107  0.02499136  0.70634276     0.11600
H731        H  0.09707329  0.97528932  0.73053247     0.11400
H732        H  0.06895653  0.01399288  0.73323953     0.07900
C733        C  0.11935971  0.90253480  0.73202166    -0.11200
C734        C  0.09858725  0.90037268  0.71333860     0.06000
C735        C  0.09615614  0.91981627  0.69344285    -0.09900
C736        C  0.11331364  0.94180228  0.69297110    -0.11600
C737        C  0.13357406  0.94517104  0.71241791    -0.01400
C738        C  0.13713459  0.92429526  0.73115837    -0.10500
C739        C  0.07808951  0.87912003  0.71517902     0.06000
H740        H  0.08024225  0.91850822  0.67881251     0.07900
H741        H  0.11015213  0.95691215  0.67782711     0.11400
H742        H  0.15332760  0.92452778  0.74538432     0.11600
H743        H  0.12178841  0.88738638  0.74727244     0.07900
C744        C  0.06040213  0.87858335  0.73692696    -0.11200
C745        C  0.03734541  0.86273624  0.73591883    -0.10500
C746        C  0.03119899  0.84723248  0.71297445    -0.01400
C747        C  0.05110369  0.84525936  0.69290635    -0.11600
C748        C  0.07379228  0.86167219  0.69361608    -0.10000
H749        H  0.06349343  0.89175150  0.75390370     0.07900
H750        H  0.02326715  0.86393134  0.75238299     0.11600
H751        H  0.04919465  0.83170105  0.67618336     0.11400
H752        H  0.08768151  0.86130497  0.67694378     0.07900
C753        C  0.21250808  0.99111253  0.59479085    -0.11200
C754        C  0.20438792  0.96681882  0.60641838     0.06000
C755        C  0.21198175  0.94276110  0.59387296    -0.09900
C756        C  0.22793878  0.94303159  0.57075892    -0.11600
C757        C  0.23665123  0.96736636  0.55962519    -0.01400
C758        C  0.22837104  0.99138465  0.57170900    -0.10500
C759        C  0.18916180  0.96682849  0.63215326     0.06000
H760        H  0.20575785  0.92369404  0.60203220     0.07900
H761        H  0.23388658  0.92415549  0.56193157     0.11400
H762        H  0.23479614  0.01049395  0.56379314     0.11600
H763        H  0.20739459  0.01001452  0.60407099     0.07900
C764        C  0.19460063  0.94793958  0.65215523    -0.11200
C765        C  0.18184396  0.94940080  0.67707650    -0.10500
C766        C  0.16388951  0.97033370  0.68328842    -0.01400
C767        C  0.15707818  0.98796717  0.66231071    -0.11600
C768        C  0.16973308  0.98640310  0.63734742    -0.10000
H769        H  0.20930754  0.93242560  0.64887881     0.07900
H770        H  0.18664613  0.93454995  0.69204651     0.11600
H771        H  0.14159470  0.00278043  0.66459403     0.11400
H772        H  0.16414358  0.00052936  0.62196782     0.07900
C773        C  0.18202810  0.97311737  0.78239906    -0.11200
C774        C  0.20952372  0.97572223  0.77714334     0.06000
C775        C  0.21783427  0.97817286  0.75037981    -0.09900
C776        C  0.19935836  0.97727665  0.72942224    -0.11600
C777        C  0.17180717  0.97293544  0.73432413    -0.01400
C778        C  0.16349744  0.97218995  0.76139504    -0.10500
C779        C  0.22959454  0.97585370  0.79927868     0.06000
H780        H  0.23881094  0.98050510  0.74549098     0.07900
H781        H  0.20708507  0.98036642  0.70947588     0.11400
H782        H  0.14247497  0.97027467  0.76627937     0.11600
H783        H  0.17475615  0.97203184  0.80279899     0.07900
C784        C  0.22665851  0.95904635  0.82163078    -0.11200
C785        C  0.24641345  0.95801596  0.84149188    -0.10500
C786        C  0.27022618  0.97313099  0.83917672    -0.01400
C787        C  0.27184931  0.99153423  0.81781235    -0.11600
C788        C  0.25218151  0.99255395  0.79801662    -0.10000
H789        H  0.20923884  0.94630256  0.82361493     0.07900
H790        H  0.24256868  0.94558475  0.85871647     0.11600
H791        H  0.28894060  0.00477437  0.81608984     0.11400
H792        H  0.25466666  0.00656923  0.78171300     0.07900
C793        C  0.59519756  0.00063091  0.36160517    -0.11200
C794        C  0.59911459  0.97802842  0.37789505     0.06000
C795        C  0.58333673  0.95516042  0.37320648    -0.09900
C796        C  0.56420980  0.95489510  0.35286764    -0.11600
C797        C  0.56004351  0.97761724  0.33696973    -0.01400
C798        C  0.57572170  0.00049874  0.34152714    -0.10500
C799        C  0.61924510  0.97837467  0.39989472     0.06000
H800        H  0.58534338  0.93756340  0.38559623     0.07900
H801        H  0.55225735  0.93703076  0.34996097     0.11400
H802        H  0.57311617  0.01820793  0.32938658     0.11600
H803        H  0.60731151  0.01841290  0.36420439     0.07900
C804        C  0.63352351  0.95512201  0.40661575    -0.11200
C805        C  0.65208293  0.95538671  0.42752481    -0.10500
C806        C  0.65709242  0.97898339  0.44202141    -0.01400
C807        C  0.64294840  0.00224135  0.43529758    -0.11600
C808        C  0.62415983  0.00190687  0.41461517    -0.10000
H809        H  0.63068533  0.93674156  0.39547460     0.07900
H810        H  0.66283069  0.93718740  0.43204478     0.11600
H811        H  0.64624866  0.02072214  0.44616579     0.11400
H812        H  0.61321733  0.02005837  0.41044629     0.07900
C813        C  0.79378868  0.95867698  0.40641727    -0.11200
C814        C  0.79847990  0.98252954  0.39236620     0.06000
C815        C  0.78820915  0.00658086  0.40267051    -0.09900
C816        C  0.77273244  0.00661641  0.42604394    -0.11600
C817        C  0.76728374  0.98259589  0.43960834    -0.01400
C818        C  0.77838111  0.95870380  0.42977451    -0.10500
C819        C  0.81289503  0.98208475  0.36637870     0.06000
H820        H  0.79134165  0.02522382  0.39212036     0.07900
H821        H  0.76436666  0.02533995  0.43301156     0.11400
H822        H  0.77468639  0.93987533  0.43979971     0.11600
H823        H  0.80180583  0.93991091  0.39914577     0.07900
C824        C  0.80715361  0.96221798  0.34737492    -0.11200
C825        C  0.81996623  0.96216114  0.32255307    -0.10500
C826        C  0.83851740  0.98233813  0.31552805    -0.01400
C827        C  0.84533783  0.00128846  0.33547782    -0.11600
C828        C  0.83229057  0.00145968  0.36029234    -0.10000
H829        H  0.79236093  0.94691524  0.35151817     0.07900
H830        H  0.81498998  0.94648536  0.30839790     0.11600
H831        H  0.86118029  0.01568287  0.33256875     0.11400
H832        H  0.83777361  0.01645263  0.37499183     0.07900
C833        C  0.89031874  0.90909596  0.70679481    -0.11200
C834        C  0.91663958  0.91369182  0.71579288     0.06000
C835        C  0.92292544  0.93923374  0.72567700    -0.09900
C836        C  0.90496722  0.96027590  0.72336654    -0.11600
C837        C  0.87975844  0.95679558  0.71101824    -0.01400
C838        C  0.87180105  0.93021955  0.70548692    -0.10500
C839        C  0.93809460  0.89286439  0.71417610     0.06000
H840        H  0.94211159  0.94326544  0.73484711     0.07900
H841        H  0.91128458  0.97947121  0.73115844     0.11400
H842        H  0.85176469  0.92606952  0.69841857     0.11600
H843        H  0.88422493  0.88950450  0.69984900     0.07900
C844        C  0.93264697  0.86534614  0.71649511    -0.11200
C845        C  0.95344760  0.84652164  0.71525409    -0.10500
C846        C  0.98047613  0.85461437  0.71284534    -0.01400
C847        C  0.98538873  0.88215422  0.70889954    -0.11600
C848        C  0.96472170  0.90075658  0.70960924    -0.10000
H849        H  0.91241202  0.85828186  0.71957532     0.07900
H850        H  0.94849676  0.82548562  0.71675680     0.11600
H851        H  0.00512883  0.88971580  0.70434893     0.11400
H852        H  0.96975175  0.92149558  0.70596302     0.07900
C853        C  0.83924070  0.96425830  0.63291389    -0.11200
C854        C  0.81932569  0.98349219  0.62846066     0.06000
C855        C  0.81443872  0.00257069  0.64853158    -0.09900
C856        C  0.82827299  0.00170859  0.67278060    -0.11600
C857        C  0.84675235  0.98111725  0.67840131    -0.01400
C858        C  0.85302855  0.96331755  0.65727111    -0.10500
C859        C  0.80319839  0.98323984  0.60336494     0.06000
H860        H  0.79939040  0.01783663  0.64583982     0.07900
H861        H  0.82389134  0.01677533  0.68777408     0.11400
H862        H  0.86904454  0.94903097  0.65884474     0.11600
H863        H  0.84442875  0.95004022  0.61737197     0.07900
C864        C  0.79493647  0.00722544  0.59128663    -0.11200
C865        C  0.77806693  0.00683176  0.56894348    -0.10500
C866        C  0.76908211  0.98244154  0.55809083    -0.01400
C867        C  0.77803193  0.95847525  0.56962923    -0.11600
C868        C  0.79483415  0.95887054  0.59197713    -0.10000
H869        H  0.80135886  0.02635434  0.59921983     0.07900
H870        H  0.77168826  0.02566773  0.56047419     0.11600
H871        H  0.77148330  0.93932499  0.56183836     0.11400
H872        H  0.80051104  0.94002491  0.60090371     0.07900
C873        C  0.89591790  0.04919600  0.72260812    -0.11200
C874        C  0.91751641  0.04819804  0.70454477     0.06000
C875        C  0.91795078  0.02799946  0.68511169    -0.09900
C876        C  0.89871757  0.00789369  0.68515273    -0.11600
C877        C  0.87842696  0.00691383  0.70489265    -0.01400
C878        C  0.87634646  0.02889940  0.72262907    -0.10500
C879        C  0.94093302  0.06638373  0.70696455     0.06000
H880        H  0.93390967  0.02714799  0.67043091     0.07900
H881        H  0.90071016  0.99191326  0.67062003     0.11400
H882        H  0.86028380  0.03024550  0.73704254     0.11600
H883        H  0.89485421  0.06496268  0.73747443     0.07900
C884        C  0.93810659  0.09421540  0.70876676    -0.11200
C885        C  0.96079319  0.11078848  0.70989150    -0.10500
C886        C  0.98693213  0.09996378  0.71068468    -0.01400
C887        C  0.98925971  0.07191122  0.70784310    -0.11600
C888        C  0.96673702  0.05552967  0.70636904    -0.10000
H889        H  0.91841485  0.10315510  0.70861068     0.07900
H890        H  0.95796805  0.13224080  0.71049398     0.11600
H891        H  0.00840048  0.06217497  0.70589042     0.11400
H892        H  0.96955011  0.03412375  0.70458063     0.07900
C893        C  0.79456248  0.97513206  0.74665533    -0.11200
C894        C  0.80308968  0.97953665  0.77296728     0.06000
C895        C  0.83051246  0.98287426  0.77783371    -0.09900
C896        C  0.84886087  0.98324484  0.75648199    -0.11600
C897        C  0.84032454  0.98048575  0.72960277    -0.01400
C898        C  0.81285128  0.97486565  0.72547215    -0.10500
C899        C  0.78302707  0.98084675  0.79491632     0.06000
H900        H  0.83765920  0.98582524  0.79808073     0.07900
H901        H  0.86981352  0.98623022  0.76096221     0.11400
H902        H  0.80504348  0.96989977  0.70594778     0.11600
H903        H  0.77360462  0.97151842  0.74251008     0.07900
C904        C  0.76176676  0.99896532  0.79329287    -0.11200
C905        C  0.74171851  0.99928636  0.81283635    -0.10500
C906        C  0.74143505  0.98053876  0.83394421    -0.01400
C907        C  0.76382663  0.96342467  0.83626576    -0.11600
C908        C  0.78427751  0.96356748  0.81694847    -0.10000
H909        H  0.76064655  0.01288950  0.77676193     0.07900
H910        H  0.72566622  0.01364623  0.81095813     0.11600
H911        H  0.76596093  0.95003219  0.85304469     0.11400
H912        H  0.80079074  0.94975004  0.81889105     0.07900
C913        C  0.62105182  0.99969413  0.58227161    -0.11200
C914        C  0.61769111  0.97666140  0.59806063     0.06000
C915        C  0.63427941  0.95449597  0.59312970    -0.09900
C916        C  0.65358312  0.95528574  0.57286821    -0.11600
C917        C  0.65702515  0.97837828  0.55728934    -0.01400
C918        C  0.64061278  0.00059920  0.56223863    -0.10500
C919        C  0.59706365  0.97574074  0.61960742     0.06000
H920        H  0.63264459  0.93661320  0.60519135     0.07900
H921        H  0.66610394  0.93792810  0.56966891     0.11400
H922        H  0.64266333  0.01859636  0.55038952     0.11600
H923        H  0.60834552  0.01695504  0.58515238     0.07900
C924        C  0.59133158  0.99857049  0.63511120    -0.11200
C925        C  0.57209027  0.99759459  0.65546004    -0.10500
C926        C  0.55833068  0.97370139  0.66096716    -0.01400
C927        C  0.56401210  0.95089368  0.64550120    -0.11600
C928        C  0.58302518  0.95193496  0.62498829    -0.10000
H929        H  0.60203068  0.01712678  0.63184608     0.07900
H930        H  0.56825520  0.01547191  0.66712086     0.11600
H931        H  0.55357352  0.93223499  0.64907923     0.11400
H932        H  0.58649549  0.93411033  0.61314861     0.07900
C933        C  0.41213830  0.94779724  0.63642800    -0.11200
C934        C  0.40629997  0.97138058  0.62226878     0.06000
C935        C  0.42007554  0.99496816  0.62935120    -0.09900
C936        C  0.43919100  0.99490388  0.64982535    -0.11600
C937        C  0.44529069  0.97119755  0.66355299    -0.01400
C938        C  0.43148157  0.94767316  0.65663465    -0.10500
C939        C  0.38614041  0.97124987  0.60014675     0.06000
H940        H  0.41653485  0.01344352  0.61872041     0.07900
H941        H  0.44958639  0.01334466  0.65453659     0.11400
H942        H  0.43552159  0.92910936  0.66695803     0.11600
H943        H  0.40160193  0.92936245  0.63209416     0.07900
C944        C  0.38287327  0.94858072  0.58364757    -0.11200
C945        C  0.36375431  0.94821767  0.56322262    -0.10500
C946        C  0.34765269  0.97065258  0.55841519    -0.01400
C947        C  0.35108113  0.99346641  0.57456622    -0.11600
C948        C  0.36993193  0.99370249  0.59527734    -0.10000
H949        H  0.39531183  0.93111613  0.58626022     0.07900
H950        H  0.36178296  0.93041670  0.55097813     0.11600
H951        H  0.33883693  0.01101628  0.57150849     0.11400
H952        H  0.37144216  0.01137258  0.60774608     0.07900
C953        C  0.60497243  0.94701787  0.78845392    -0.11200
C954        C  0.61272708  0.97029962  0.80220376     0.06000
C955        C  0.59582799  0.99266741  0.80164361    -0.09900
C956        C  0.57215314  0.99214124  0.78666789    -0.11600
C957        C  0.56462389  0.96903356  0.77236166    -0.01400
C958        C  0.58104939  0.94628948  0.77392455    -0.10500
C959        C  0.63913558  0.97184724  0.81566235     0.06000
H960        H  0.60147667  0.01089290  0.81197390     0.07900
H961        H  0.55999189  0.01000115  0.78588813     0.11400
H962        H  0.57593390  0.92821058  0.76308427     0.11600
H963        H  0.61765390  0.92949860  0.78867222     0.07900
C964        C  0.66257578  0.96641647  0.80124222    -0.11200
C965        C  0.68768743  0.96932264  0.81322287    -0.10500
C966        C  0.69023478  0.97807483  0.84009249    -0.01400
C967        C  0.66630519  0.98127777  0.85494309    -0.11600
C968        C  0.64119446  0.97904817  0.84272073    -0.10000
H969        H  0.66146607  0.96023169  0.78046947     0.07900
H970        H  0.70492735  0.96407791  0.80127874     0.11600
H971        H  0.66711189  0.98625995  0.87603794     0.11400
H972        H  0.62333573  0.98268671  0.85446840     0.07900
C973        C  0.41376426  0.98728032  0.80632053    -0.11200
C974        C  0.39811172  0.96393615  0.80736168     0.06000
C975        C  0.40660733  0.94117472  0.79326790    -0.09900
C976        C  0.42990917  0.94195236  0.77775358    -0.11600
C977        C  0.44491967  0.96568742  0.77558078    -0.01400
C978        C  0.43682349  0.98823916  0.79037093    -0.10500
C979        C  0.37197543  0.96401727  0.82139832     0.06000
H980        H  0.39490079  0.92292872  0.79387765     0.07900
H981        H  0.43554024  0.92425575  0.76656452     0.11400
H982        H  0.44796789  0.00679506  0.78914014     0.11600
H983        H  0.40749518  0.00512509  0.81692461     0.07900
C984        C  0.36992041  0.97232163  0.84812414    -0.11200
C985        C  0.34489380  0.97393890  0.86061155    -0.10500
C986        C  0.32100838  0.96917400  0.84619120    -0.01400
C987        C  0.32364339  0.95875616  0.81995409    -0.11600
C988        C  0.34870594  0.95644315  0.80772611    -0.10000
H989        H  0.38770547  0.97751495  0.85934772     0.07900
H990        H  0.34419245  0.98004909  0.88138921     0.11600
H991        H  0.30642366  0.95220035  0.80864184     0.11400
H992        H  0.34985563  0.94930816  0.78725857     0.07900
C993        C  0.28334251  0.89256677  0.96572599    -0.11200
C994        C  0.28777157  0.88499861  0.93897968     0.06000
C995        C  0.28971807  0.85748299  0.93319967    -0.09900
C996        C  0.28778419  0.83837368  0.95372325    -0.11600
C997        C  0.28435530  0.84606545  0.98080326    -0.01400
C998        C  0.28270643  0.87378308  0.98617206    -0.10500
C999        C  0.29093158  0.90615272  0.91792939     0.06000
H1000       H  0.29343657  0.85059169  0.91299408     0.07900
H1001       H  0.28975797  0.81742311  0.94856938     0.11400
H1002       H  0.28169075  0.88180602  0.00617615     0.11600
H1003       H  0.28072403  0.91330569  0.97130386     0.07900
C1004       C  0.28458227  0.90161709  0.89081437    -0.11200
C1005       C  0.28622492  0.92247642  0.87204778    -0.10500
C1006       C  0.29201439  0.94894875  0.88019488    -0.01400
C1007       C  0.30070407  0.95257634  0.90684134    -0.11600
C1008       C  0.30040254  0.93167206  0.92512821    -0.10000
H1009       H  0.27797514  0.88214789  0.88401731     0.07900
H1010       H  0.28204564  0.91805661  0.85124694     0.11600
H1011       H  0.30822027  0.97165896  0.91380872     0.11400
H1012       H  0.30780632  0.93578220  0.94504750     0.07900
C1013       C  0.29996853  0.85615855  0.07326926    -0.11200
C1014       C  0.27726627  0.87231244  0.07659225     0.06000
C1015       C  0.25545674  0.86827943  0.05941450    -0.09900
C1016       C  0.25762907  0.85110491  0.03744338    -0.11600
C1017       C  0.28199395  0.83805475  0.03147542    -0.01400
C1018       C  0.30205621  0.83874836  0.05136534    -0.10500
C1019       C  0.27743174  0.89511211  0.09583144     0.06000
H1020       H  0.23715539  0.87949081  0.06213063     0.07900
H1021       H  0.24103026  0.84997397  0.02360215     0.11400
H1022       H  0.31998124  0.82690892  0.04982110     0.11600
H1023       H  0.31684042  0.85806849  0.08668345     0.07900
C1024       C  0.28960916  0.89310049  0.12098663    -0.11200
C1025       C  0.29203078  0.91558389  0.13758528    -0.10500
C1026       C  0.28293112  0.94116561  0.12945483    -0.01400
C1027       C  0.26938399  0.94233440  0.10462791    -0.11600
C1028       C  0.26693622  0.91989266  0.08813818    -0.10000
H1029       H  0.29747777  0.87415983  0.12779532     0.07900
H1030       H  0.30169476  0.91294849  0.15675701     0.11600
H1031       H  0.26080440  0.96056014  0.09718619     0.11400
H1032       H  0.25753777  0.92227376  0.06878400     0.07900
C1033       C  0.08564094  0.66290735  0.06216824    -0.11200
C1034       C  0.08786195  0.68357932  0.08096977     0.06000
C1035       C  0.10803174  0.70284934  0.07771241    -0.09900
C1036       C  0.12515614  0.70198256  0.05542301    -0.11600
C1037       C  0.12149515  0.68260734  0.03504864    -0.01400
C1038       C  0.10210543  0.66243322  0.03961956    -0.10500
C1039       C  0.06757708  0.68583002  0.10249086     0.06000
H1040       H  0.11038396  0.71869835  0.09234856     0.07900
H1041       H  0.14072296  0.71689385  0.05428930     0.11400
H1042       H  0.09888268  0.64680772  0.02491075     0.11600
H1043       H  0.07022712  0.64778347  0.06424995     0.07900
C1044       C  0.05148951  0.70864635  0.10431682    -0.11200
C1045       C  0.02872381  0.70862783  0.12064099    -0.10500
C1046       C  0.02116299  0.68560991  0.13527727    -0.01400
C1047       C  0.03964402  0.66423803  0.13601372    -0.11600
C1048       C  0.06204086  0.66403563  0.11919071    -0.10000
H1049       H  0.05553799  0.72584589  0.09179807     0.07900
H1050       H  0.01585018  0.72599953  0.12038894     0.11600
H1051       H  0.03681107  0.64715489  0.14884937     0.11400
H1052       H  0.07474091  0.64652799  0.11870231     0.07900
C1053       C  0.07351025  0.69563097  0.96582075    -0.11200
C1054       C  0.08321399  0.69234950  0.93978451     0.06000
C1055       C  0.11065218  0.68857692  0.93567776    -0.09900
C1056       C  0.12792252  0.68638896  0.95762041    -0.11600
C1057       C  0.11802083  0.68719572  0.98418151    -0.01400
C1058       C  0.09067434  0.69370949  0.98767420    -0.10500
C1059       C  0.06416195  0.69106175  0.91736147     0.06000
H1060       H  0.11853109  0.68638127  0.91557758     0.07900
H1061       H  0.14894129  0.68272611  0.95392291     0.11400
H1062       H  0.08199015  0.69714375  0.00717619     0.11600
H1063       H  0.05243685  0.69931235  0.96925255     0.07900
C1064       C  0.04764544  0.66862153  0.91463956    -0.11200
C1065       C  0.02819684  0.66768410  0.89469779    -0.10500
C1066       C  0.02490721  0.68897996  0.87644393    -0.01400
C1067       C  0.04115707  0.71196203  0.88013621    -0.11600
C1068       C  0.06081117  0.71275480  0.90007733    -0.10000
H1069       H  0.04958527  0.65191643  0.92825709     0.07900
H1070       H  0.01548513  0.65015896  0.89347430     0.11600
H1071       H  0.03830268  0.72986557  0.86848285     0.11400
H1072       H  0.07281777  0.73064361  0.90259494     0.07900
C1073       C  0.18097694  0.62165103  0.02676889    -0.11200
C1074       C  0.17628469  0.60344035  0.00586108     0.06000
C1075       C  0.15699156  0.60976063  0.98655585    -0.09900
C1076       C  0.14366554  0.63431411  0.98734066    -0.11600
C1077       C  0.14989658  0.65373202  0.00704668    -0.01400
C1078       C  0.16770578  0.64614598  0.02757687    -0.10500
C1079       C  0.19230569  0.57851906  0.00375235     0.06000
H1080       H  0.15216772  0.59565076  0.97079097     0.07900
H1081       H  0.12848479  0.63761475  0.97242214     0.11400
H1082       H  0.17226616  0.65991935  0.04372117     0.11600
H1083       H  0.19565178  0.61741527  0.04206932     0.07900
C1084       C  0.19919721  0.56411476  0.02682794    -0.11200
C1085       C  0.21662671  0.54239052  0.02521659    -0.10500
C1086       C  0.22751497  0.53446576  0.00047043    -0.01400
C1087       C  0.21972630  0.54811275  0.97720852    -0.11600
C1088       C  0.20232899  0.56993277  0.97883896    -0.10000
H1089       H  0.19141396  0.56990189  0.04623944     0.07900
H1090       H  0.22196327  0.53210939  0.04348463     0.11600
H1091       H  0.22775986  0.54250942  0.95784337     0.11400
H1092       H  0.19759505  0.58075056  0.96071702     0.07900
C1093       C  0.24057876  0.76455438  0.02115222    -0.11200
C1094       C  0.21966415  0.76627373  0.00264526     0.06000
C1095       C  0.21969837  0.78731102  0.98413093    -0.09900
C1096       C  0.24075310  0.80593535  0.98365451    -0.11600
C1097       C  0.26232184  0.80399520  0.00184475    -0.01400
C1098       C  0.26125082  0.78334572  0.02108229    -0.10500
C1099       C  0.19851888  0.74543274  0.00241373     0.06000
H1100       H  0.20360512  0.78910372  0.96978275     0.07900
H1101       H  0.23958595  0.82201047  0.96932172     0.11400
H1102       H  0.27686177  0.78160302  0.03596674     0.11600
H1103       H  0.24080912  0.74867505  0.03585894     0.07900
C1104       C  0.20576303  0.71854511  0.00012303    -0.11200
C1105       C  0.18647366  0.69838543  0.00124230    -0.10500
C1106       C  0.15917073  0.70428043  0.00607493    -0.01400
C1107       C  0.15196114  0.73163313  0.00668472    -0.11600
C1108       C  0.17136775  0.75191844  0.00502970    -0.10000
H1109       H  0.22652027  0.71311537  0.99714923     0.07900
H1110       H  0.19348389  0.67828620  0.99786979     0.11600
H1111       H  0.13118794  0.73726786  0.00895951     0.11400
H1112       H  0.16525132  0.77263168  0.00642535     0.07900
C1113       C  0.26407755  0.02592738  0.10205671    -0.11200
C1114       C  0.28790327  0.03345410  0.08906411     0.06000
C1115       C  0.31134338  0.01957774  0.09558100    -0.09900
C1116       C  0.31114579  0.99920881  0.11464967    -0.11600
C1117       C  0.28751930  0.99174618  0.12843810    -0.01400
C1118       C  0.26377794  0.00514553  0.12085475    -0.10500
C1119       C  0.28834963  0.05490490  0.06814222     0.06000
H1120       H  0.32994982  0.02376391  0.08530086     0.07900
H1121       H  0.32979160  0.98900677  0.11776325     0.11400
H1122       H  0.24456297  0.99892065  0.12864160     0.11600
H1123       H  0.24544212  0.03585486  0.09753590     0.07900
C1124       C  0.26631685  0.05912523  0.05125302    -0.11200
C1125       C  0.26714709  0.07873465  0.03130067    -0.10500
C1126       C  0.28990406  0.09515249  0.02752759    -0.01400
C1127       C  0.31235341  0.08990329  0.04381818    -0.11600
C1128       C  0.31132274  0.07069717  0.06410747    -0.10000
H1129       H  0.24854533  0.04685373  0.05292254     0.07900
H1130       H  0.24985398  0.08108536  0.01852416     0.11600
H1131       H  0.33125957  0.09986256  0.04074852     0.11400
H1132       H  0.32881999  0.06817695  0.07653270     0.07900
C1133       C  0.30703828  0.04190040  0.89252822    -0.11200
C1134       C  0.28620605  0.04312002  0.91136920     0.06000
C1135       C  0.26574001  0.02399695  0.91019591    -0.09900
C1136       C  0.26746143  0.00256151  0.89228446    -0.11600
C1137       C  0.28992935  0.99939550  0.87532672    -0.01400
C1138       C  0.30846761  0.02073187  0.87416076    -0.10500
C1139       C  0.28707987  0.06264037  0.93373224     0.06000
H1140       H  0.24925249  0.02469547  0.92427817     0.07900
H1141       H  0.25210343  0.98727371  0.89301095     0.11400
H1142       H  0.32460743  0.02091066  0.85976596     0.11600
H1143       H  0.32256308  0.05704730  0.89245875     0.07900
C1144       C  0.30966127  0.06375649  0.95022378    -0.11200
C1145       C  0.31010581  0.08044333  0.97265454    -0.10500
C1146       C  0.28849808  0.09761511  0.97867481    -0.01400
C1147       C  0.26555321  0.09586807  0.96224194    -0.11600
C1148       C  0.26489316  0.07855991  0.94011434    -0.10000
H1149       H  0.32671924  0.05105136  0.94619484     0.07900
H1150       H  0.32766610  0.08028911  0.98529963     0.11600
H1151       H  0.24770460  0.10716397  0.96670566     0.11400
H1152       H  0.24697002  0.07747816  0.92802884     0.07900
C1153       C  0.07311671  0.27749316  0.11537103    -0.11200
C1154       C  0.07590545  0.25491637  0.09882277     0.06000
C1155       C  0.05755002  0.23387663  0.10149778    -0.09900
C1156       C  0.03532986  0.23650248  0.11814764    -0.11600
C1157       C  0.03034917  0.26052753  0.13227265    -0.01400
C1158       C  0.05081952  0.28010502  0.13229035    -0.10500
C1159       C  0.09543408  0.25463072  0.07639396     0.06000
H1160       H  0.05963819  0.21587609  0.08956997     0.07900
H1161       H  0.02079049  0.22041457  0.11844156     0.11400
H1162       H  0.04950981  0.29789886  0.14448115     0.11600
H1163       H  0.08737432  0.29378540  0.11413338     0.07900
C1164       C  0.08657972  0.24758295  0.05072708    -0.11200
C1165       C  0.10352532  0.24960492  0.02868821    -0.10500
C1166       C  0.12995008  0.25936907  0.03136578    -0.01400
C1167       C  0.13954931  0.26364168  0.05765262    -0.11600
C1168       C  0.12225749  0.26222643  0.07980483    -0.10000
H1169       H  0.06611338  0.24122701  0.04749276     0.07900
H1170       H  0.09550160  0.24351384  0.00954396     0.11600
H1171       H  0.16015319  0.26952832  0.06083249     0.11400
H1172       H  0.12977662  0.26713578  0.09953275     0.07900
C1173       C  0.09454474  0.28395156  0.95583936    -0.11200
C1174       C  0.09699917  0.26479331  0.93555464     0.06000
C1175       C  0.11762284  0.24586601  0.93709976    -0.09900
C1176       C  0.13515022  0.24571656  0.95901211    -0.11600
C1177       C  0.13159861  0.26377194  0.98054951    -0.01400
C1178       C  0.11148754  0.28345273  0.97790499    -0.10500
C1179       C  0.07694378  0.26392771  0.91380834     0.06000
H1180       H  0.12014934  0.23119784  0.92130650     0.07900
H1181       H  0.15116379  0.23130473  0.95884747     0.11400
H1182       H  0.10826989  0.29804983  0.99362598     0.11600
H1183       H  0.07878066  0.29874376  0.95513837     0.07900
C1184       C  0.06201255  0.24062811  0.90934665    -0.11200
C1185       C  0.04070032  0.24067817  0.89131522    -0.10500
C1186       C  0.03432013  0.26370146  0.87625781    -0.01400
C1187       C  0.04960364  0.28708165  0.88099069    -0.11600
C1188       C  0.07057705  0.28712108  0.89947584    -0.10000
H1189       H  0.06607101  0.22269533  0.92073338     0.07900
H1190       H  0.02885643  0.22263479  0.88919416     0.11600
H1191       H  0.04478111  0.30587230  0.87159910     0.11400
H1192       H  0.08147956  0.30552333  0.90309197     0.07900
C1193       C  0.20741740  0.38099497  0.97690394    -0.11200
C1194       C  0.20002338  0.36955158  0.00153374     0.06000
C1195       C  0.20715091  0.38286245  0.02531996    -0.09900
C1196       C  0.22222998  0.40642399  0.02452558    -0.11600
C1197       C  0.23057836  0.41721926  0.99992710    -0.01400
C1198       C  0.22253343  0.40453617  0.97610920    -0.10500
C1199       C  0.18609023  0.34323737  0.00251909     0.06000
H1200       H  0.20199726  0.37451723  0.04463850     0.07900
H1201       H  0.22805924  0.41570363  0.04324564     0.11400
H1202       H  0.22851588  0.41238732  0.95681237     0.11600
H1203       H  0.20178216  0.37158724  0.95819378     0.07900
C1204       C  0.19271681  0.32286838  0.98430462    -0.11200
C1205       C  0.18044087  0.29782481  0.98588711    -0.10500
C1206       C  0.16193055  0.29178262  0.00643329    -0.01400
C1207       C  0.15434231  0.31289800  0.02373365    -0.11600
C1208       C  0.16643709  0.33806895  0.02194788    -0.10000
H1209       H  0.20775413  0.32608139  0.96901697     0.07900
H1210       H  0.18582860  0.28272685  0.97126091     0.11600
H1211       H  0.13842048  0.31066215  0.03817195     0.11400
H1212       H  0.16003971  0.35368042  0.03557426     0.07900
C1213       C  0.24385946  0.17437121  0.98588111    -0.11200
C1214       C  0.22681696  0.17627408  0.00806558     0.06000
C1215       C  0.23000188  0.15834276  0.02930639    -0.09900
C1216       C  0.25007204  0.13881040  0.02844380    -0.11600
C1217       C  0.26695145  0.13608562  0.00578280    -0.01400
C1218       C  0.26357194  0.15463382  0.98474342    -0.10500
C1219       C  0.20684493  0.19802461  0.00949265     0.06000
H1220       H  0.21744443  0.15998400  0.04693071     0.07900
H1221       H  0.25255687  0.12651074  0.04598427     0.11400
H1222       H  0.27640826  0.15384645  0.96727769     0.11600
H1223       H  0.24195397  0.18829414  0.96942362     0.07900
C1224       C  0.21534378  0.22446351  0.01299299    -0.11200
C1225       C  0.19692378  0.24543962  0.01295306    -0.10500
C1226       C  0.16940804  0.24077374  0.00802830    -0.01400
C1227       C  0.16097804  0.21377853  0.00632520    -0.11600
C1228       C  0.17945696  0.19272018  0.00681410    -0.10000
H1229       H  0.23635655  0.22886918  0.01593477     0.07900
H1230       H  0.20464385  0.26519979  0.01705334     0.11600
H1231       H  0.13998526  0.20903565  0.00391167     0.11400
H1232       H  0.17243941  0.17233370  0.00454050     0.07900
C1233       C  0.41922768  0.35672366  0.01825633    -0.11200
C1234       C  0.40251373  0.35982055  0.99584640     0.06000
C1235       C  0.40642121  0.34291735  0.97360518    -0.09900
C1236       C  0.42649171  0.32349388  0.97378212    -0.11600
C1237       C  0.44287048  0.32024910  0.99634078    -0.01400
C1238       C  0.43900700  0.33705085  0.01857365    -0.10500
C1239       C  0.38113193  0.38054217  0.99577211     0.06000
H1240       H  0.39369028  0.34435568  0.95618002     0.07900
H1241       H  0.42886243  0.31068122  0.95642518     0.11400
H1242       H  0.45148044  0.33518275  0.03616135     0.11600
H1243       H  0.41727181  0.36970683  0.03552038     0.07900
C1244       C  0.36733283  0.38700898  0.01948999    -0.11200
C1245       C  0.34776011  0.40687243  0.01966630    -0.10500
C1246       C  0.34119908  0.42057141  0.99606512    -0.01400
C1247       C  0.35457680  0.41386207  0.97223061    -0.11600
C1248       C  0.37442426  0.39419213  0.97211132    -0.10000
H1249       H  0.37143757  0.37654117  0.03796080     0.07900
H1250       H  0.33759620  0.41133842  0.03831416     0.11600
H1251       H  0.35000591  0.42410508  0.95373159     0.11400
H1252       H  0.38484446  0.39006954  0.95354445     0.07900
C1253       C  0.35385116  0.15349252  0.97971856    -0.11200
C1254       C  0.36333637  0.16538192  0.00342706     0.06000
C1255       C  0.34763177  0.16259290  0.02674040    -0.09900
C1256       C  0.32385298  0.14770912  0.02641889    -0.11600
C1257       C  0.31595505  0.13325585  0.00344255    -0.01400
C1258       C  0.33072034  0.13778466  0.97969524    -0.10500
C1259       C  0.38913752  0.18084920  0.00351427     0.06000
H1260       H  0.35375017  0.17145636  0.04551943     0.07900
H1261       H  0.31215416  0.14639732  0.04464624     0.11400
H1262       H  0.32427351  0.12977233  0.96065366     0.11600
H1263       H  0.36404355  0.15650622  0.96084302     0.07900
C1264       C  0.40952094  0.17520618  0.98470400    -0.11200
C1265       C  0.43304144  0.19044498  0.98387448    -0.10500
C1266       C  0.43730447  0.21103038  0.00246982    -0.01400
C1267       C  0.41759920  0.21619207  0.02184223    -0.11600
C1268       C  0.39368302  0.20160505  0.02213121    -0.10000
H1269       H  0.40749760  0.15895479  0.97052306     0.07900
H1270       H  0.44800892  0.18601288  0.96880468     0.11600
H1271       H  0.42023516  0.23230169  0.03615057     0.11400
H1272       H  0.37857954  0.20724268  0.03657943     0.07900
C1273       C  0.91578240  0.23975935  0.95356993    -0.11200
C1274       C  0.92024071  0.26081317  0.93566107     0.06000
C1275       C  0.90373953  0.28340653  0.93710777    -0.09900
C1276       C  0.88345230  0.28521899  0.95633695    -0.11600
C1277       C  0.87888659  0.26433225  0.97487118    -0.01400
C1278       C  0.89576447  0.24167707  0.97310546    -0.10500
C1279       C  0.94311488  0.26019962  0.91665818     0.06000
H1280       H  0.90691571  0.30002707  0.92359211     0.07900
H1281       H  0.87247728  0.30373812  0.95715461     0.11400
H1282       H  0.89368906  0.22554928  0.98739679     0.11600
H1283       H  0.92852342  0.22228745  0.95318738     0.07900
C1284       C  0.96060756  0.28206226  0.91531620    -0.11200
C1285       C  0.98183639  0.28216970  0.89718655    -0.10500
C1286       C  0.98572260  0.26093986  0.87881753    -0.01400
C1287       C  0.96899531  0.23823677  0.88148620    -0.11600
C1288       C  0.94789259  0.23798074  0.90008085    -0.10000
H1289       H  0.95792529  0.29911328  0.92846543     0.07900
H1290       H  0.99487513  0.29948950  0.89679481     0.11600
H1291       H  0.97214574  0.22044042  0.86962150     0.11400
H1292       H  0.93505015  0.22054899  0.90125768     0.07900
C1293       C  0.89543031  0.24664670  0.06540620    -0.11200
C1294       C  0.91632168  0.26542983  0.06614857     0.06000
C1295       C  0.91787572  0.28474479  0.04596567    -0.09900
C1296       C  0.89925109  0.28514026  0.02529507    -0.11600
C1297       C  0.87811054  0.26631318  0.02394956    -0.01400
C1298       C  0.87679213  0.24677816  0.04439556    -0.10500
C1299       C  0.93774559  0.26406737  0.08662035     0.06000
H1300       H  0.93376740  0.29950960  0.04604578     0.07900
H1301       H  0.90140529  0.30029615  0.00998909     0.11400
H1302       H  0.86201499  0.23102568  0.04411540     0.11600
H1303       H  0.89415279  0.23120851  0.08052430     0.07900
C1304       C  0.93196284  0.26329984  0.11411662    -0.11200
C1305       C  0.95273263  0.26342623  0.13300472    -0.10500
C1306       C  0.97988444  0.26300890  0.12493460    -0.01400
C1307       C  0.98513341  0.26466137  0.09709214    -0.11600
C1308       C  0.96450432  0.26485685  0.07841992    -0.10000
H1309       H  0.91140840  0.26332330  0.12097876     0.07900
H1310       H  0.94763628  0.26358120  0.15408892     0.11600
H1311       H  0.00513437  0.26669177  0.08919082     0.11400
H1312       H  0.96953373  0.26588922  0.05733382     0.07900
C1313       C  0.68979584  0.06556363  0.04331447    -0.11200
C1314       C  0.70815306  0.06680618  0.06440800     0.06000
C1315       C  0.72570070  0.08878842  0.06583678    -0.09900
C1316       C  0.72617437  0.10808438  0.04539713    -0.11600
C1317       C  0.70935616  0.10548928  0.02281679    -0.01400
C1318       C  0.69021694  0.08462121  0.02308801    -0.10500
C1319       C  0.70976479  0.04415624  0.08357291     0.06000
H1320       H  0.73974559  0.09050132  0.08222129     0.07900
H1321       H  0.74006846  0.12453758  0.04728825     0.11400
H1322       H  0.67633722  0.08225060  0.00663901     0.11600
H1323       H  0.67545299  0.04933955  0.04206711     0.07900
C1324       C  0.71138998  0.04829666  0.11131778    -0.11200
C1325       C  0.71205430  0.02644907  0.12889092    -0.10500
C1326       C  0.71229469  0.99981647  0.11920322    -0.01400
C1327       C  0.70972876  0.99612275  0.09124209    -0.11600
C1328       C  0.70885712  0.01783707  0.07384280    -0.10000
H1329       H  0.71152124  0.06839785  0.11943252     0.29500
H1330       H  0.71264877  0.03030965  0.15022454     0.11600
H1331       H  0.70761138  0.97651527  0.08238257     0.11400
H1332       H  0.70735423  0.01396624  0.05254744     0.07900
C1333       C  0.73122209  0.06367514  0.95250992    -0.11200
C1334       C  0.72497701  0.07267904  0.92674084     0.06000
C1335       C  0.71668612  0.09936369  0.92367943    -0.09900
C1336       C  0.71358060  0.11614071  0.94617127    -0.11600
C1337       C  0.71677742  0.10612358  0.97242200    -0.01400
C1338       C  0.72757248  0.08008005  0.97479293    -0.10500
C1339       C  0.72579951  0.05332854  0.90393528     0.06000
H1340       H  0.71244455  0.10717286  0.90395008     0.07900
H1341       H  0.70722451  0.13659262  0.94317737     0.11400
H1342       H  0.73318392  0.07185951  0.99395243     0.11600
H1343       H  0.73808873  0.04341160  0.95567757     0.07900
C1344       C  0.74641622  0.03438924  0.90218946    -0.11200
C1345       C  0.74432163  0.01247980  0.88488016    -0.10500
C1346       C  0.72117750  0.00828690  0.86923116    -0.01400
C1347       C  0.70237884  0.02937664  0.86834254    -0.11600
C1348       C  0.70444122  0.05133973  0.88581926    -0.10000
H1349       H  0.76366392  0.03583301  0.91518591     0.07900
H1350       H  0.75999941  0.99759410  0.88517919     0.11600
H1351       H  0.68555972  0.02884887  0.85485183     0.11400
H1352       H  0.68854194  0.06598911  0.88614977     0.07900
C1353       C  0.63720926  0.14266388  0.97895664    -0.11200
C1354       C  0.63072886  0.16105711  0.99928760     0.06000
C1355       C  0.64973455  0.16601361  0.01935985    -0.09900
C1356       C  0.67473341  0.15363198  0.01861926    -0.11600
C1357       C  0.68226128  0.13668417  0.99718836    -0.01400
C1358       C  0.66238174  0.13045512  0.97805355    -0.10500
C1359       C  0.60465308  0.17559998  0.99920243     0.06000
H1360       H  0.64561088  0.17998607  0.03542153     0.07900
H1361       H  0.68876425  0.15792925  0.03456090     0.11400
H1362       H  0.66558024  0.11561079  0.96268384     0.11600
H1363       H  0.62264738  0.13739340  0.96381873     0.07900
C1364       C  0.59315545  0.18392972  0.97494522    -0.11200
C1365       C  0.56995990  0.19950775  0.97482056    -0.10500
C1366       C  0.55767905  0.20734664  0.99895065    -0.01400
C1367       C  0.56857101  0.19826638  0.02318842    -0.11600
C1368       C  0.59169801  0.18251745  0.02331100    -0.10000
H1369       H  0.60265107  0.17932635  0.95599432     0.07900
H1370       H  0.56219629  0.20619359  0.95576599     0.11600
H1371       H  0.55955466  0.20379504  0.04213603     0.11400
H1372       H  0.59958200  0.17601051  0.04236688     0.07900
C1373       C  0.78106771  0.15617955  0.00137917    -0.11200
C1374       C  0.77553092  0.18363615  0.00005924     0.06000
C1375       C  0.74898280  0.19178628  0.99702911    -0.09900
C1376       C  0.72827210  0.17296556  0.99556953    -0.11600
C1377       C  0.73319034  0.14522314  0.99861781    -0.01400
C1378       C  0.76024337  0.13728763  0.00070912    -0.10500
C1379       C  0.79735651  0.20386050  0.00040856     0.06000
H1380       H  0.74433216  0.21282577  0.99496826     0.07900
H1381       H  0.70855558  0.18061243  0.99150258     0.11400
H1382       H  0.76525880  0.11628970  0.00202802     0.11600
H1383       H  0.80151912  0.14936756  0.00316734     0.07900
C1384       C  0.81663494  0.20412014  0.98006691    -0.11200
C1385       C  0.83621711  0.22417161  0.97915868    -0.10500
C1386       C  0.83805266  0.24401568  0.99942649    -0.01400
C1387       C  0.81817829  0.24363311  0.01963304    -0.11600
C1388       C  0.79810246  0.22397584  0.02003446    -0.10000
H1389       H  0.81594842  0.18926910  0.96424674     0.07900
H1390       H  0.84931775  0.22405369  0.96199055     0.11600
H1391       H  0.81818522  0.25879402  0.03515942     0.11400
H1392       H  0.78313301  0.22443389  0.03573252     0.07900
C1393       C  0.62315868  0.39475797  0.96813981    -0.11200
C1394       C  0.61721718  0.38084561  0.99188063     0.06000
C1395       C  0.63175206  0.38723258  0.01516332    -0.09900
C1396       C  0.65152527  0.40705714  0.01475421    -0.11600
C1397       C  0.65753365  0.42076304  0.99097844    -0.01400
C1398       C  0.64317071  0.41435264  0.96766349    -0.10500
C1399       C  0.59600334  0.35980292  0.99242509     0.06000
H1400       H  0.62816652  0.37663633  0.03369824     0.07900
H1401       H  0.66236865  0.41139021  0.03300780     0.11400
H1402       H  0.64718861  0.42470212  0.94905982     0.11600
H1403       H  0.61210929  0.39079187  0.94994423     0.07900
C1404       C  0.58001834  0.35621705  0.01535737    -0.11200
C1405       C  0.56056416  0.33613612  0.01621209    -0.10500
C1406       C  0.55625378  0.31936702  0.99402054    -0.01400
C1407       C  0.57181970  0.32313584  0.97089460    -0.11600
C1408       C  0.59160978  0.34299416  0.97016942    -0.10000
H1409       H  0.58231036  0.36911480  0.03264338     0.07900
H1410       H  0.54863400  0.33395718  0.03420489     0.11600
H1411       H  0.56901737  0.31042871  0.95352667     0.11400
H1412       H  0.60376229  0.34483777  0.95230766     0.07900
C1413       C  0.79100362  0.37951330  0.96816295    -0.11200
C1414       C  0.79826133  0.36829365  0.99297617     0.06000
C1415       C  0.79052337  0.38190695  0.01648234    -0.09900
C1416       C  0.77589249  0.40565578  0.01528434    -0.11600
C1417       C  0.76810198  0.41647146  0.99057219    -0.01400
C1418       C  0.77602893  0.40321106  0.96698531    -0.10500
C1419       C  0.81359682  0.34254632  0.99456536     0.06000
H1420       H  0.79501060  0.37388444  0.03604326     0.07900
H1421       H  0.77001200  0.41513533  0.03390025     0.11400
H1422       H  0.77032672  0.41091757  0.94758860     0.11600
H1423       H  0.79690592  0.37005777  0.94956392     0.07900
C1424       C  0.81056153  0.32224205  0.97519298    -0.11200
C1425       C  0.82499210  0.29826224  0.97698950    -0.10500
C1426       C  0.84311039  0.29363762  0.99814915    -0.01400
C1427       C  0.84483064  0.31358982  0.01823068    -0.11600
C1428       C  0.83099890  0.33771879  0.01606097    -0.10000
H1429       H  0.79678269  0.32465039  0.95871685     0.07900
H1430       H  0.82228020  0.28326050  0.96154596     0.11600
H1431       H  0.85673661  0.31102828  0.03600386     0.11400
H1432       H  0.83419537  0.35266985  0.03142390     0.07900
C1433       C  0.72963871  0.86786802  0.92797506    -0.11200
C1434       C  0.71225811  0.88991721  0.92869804     0.06000
C1435       C  0.69279292  0.89106611  0.94886746    -0.09900
C1436       C  0.69206319  0.87195605  0.96905704    -0.11600
C1437       C  0.71124554  0.85127995  0.97033738    -0.01400
C1438       C  0.72898095  0.84856204  0.94841210    -0.10500
C1439       C  0.71501056  0.91265657  0.90972008     0.06000
H1440       H  0.67850565  0.90729632  0.94946834     0.07900
H1441       H  0.67738551  0.87430665  0.98485713     0.11400
H1442       H  0.74274986  0.83203024  0.94705878     0.11600
H1443       H  0.74442148  0.86612613  0.91219646     0.07900
C1444       C  0.71749214  0.90863257  0.88201933    -0.11200
C1445       C  0.71863175  0.93054985  0.86453413    -0.10500
C1446       C  0.71838708  0.95717791  0.87426095    -0.01400
C1447       C  0.71541074  0.96075004  0.90221958    -0.11600
C1448       C  0.71408101  0.93894612  0.91953137    -0.10000
H1449       H  0.71774689  0.88856022  0.87383685     0.07900
H1450       H  0.71966599  0.92674703  0.84320494     0.11600
H1451       H  0.71306053  0.98030504  0.91111163     0.11400
H1452       H  0.71199160  0.94270583  0.94080541     0.07900
C1453       C  0.72922151  0.89421650  0.04123789    -0.11200
C1454       C  0.72255531  0.88493875  0.06685096     0.06000
C1455       C  0.71463142  0.85810574  0.06974134    -0.09900
C1456       C  0.71236612  0.84136373  0.04719638    -0.11600
C1457       C  0.71632811  0.85146754  0.02105744    -0.01400
C1458       C  0.72662735  0.87775592  0.01889478    -0.10500
C1459       C  0.72262223  0.90412664  0.08968967     0.06000
H1460       H  0.71004758  0.85014750  0.08936603     0.07900
H1461       H  0.70624298  0.82077734  0.05002804     0.11400
H1462       H  0.73271463  0.88609585  0.99989429     0.11600
H1463       H  0.73572245  0.91466774  0.03823269     0.07900
C1464       C  0.74273428  0.92366176  0.09155896    -0.11200
C1465       C  0.73979456  0.94551525  0.10870501    -0.10500
C1466       C  0.71635976  0.94891419  0.12416924    -0.01400
C1467       C  0.69817111  0.92721061  0.12508698    -0.11600
C1468       C  0.70102291  0.90534537  0.10766517    -0.10000
H1469       H  0.76019511  0.92275065  0.07872724     0.07900
H1470       H  0.75505868  0.96091794  0.10847543     0.11600
H1471       H  0.68125743  0.92714704  0.13854148     0.11400
H1472       H  0.68554088  0.89017102  0.10725145     0.07900
C1473       C  0.88630762  0.68899660  0.92823083    -0.11200
C1474       C  0.91382997  0.68753730  0.93314787     0.06000
C1475       C  0.92283869  0.68499680  0.95943592    -0.09900
C1476       C  0.90476190  0.68466194  0.98069972    -0.11600
C1477       C  0.87695567  0.68815965  0.97650470    -0.01400
C1478       C  0.86807392  0.68901641  0.94963805    -0.10500
C1479       C  0.93358754  0.68820609  0.91120248     0.06000
H1480       H  0.94400034  0.68284104  0.96348446     0.07900
H1481       H  0.91300538  0.68100121  0.00029359     0.11400
H1482       H  0.84690774  0.69009765  0.94528414     0.11600
H1483       H  0.87897960  0.69033483  0.90789483     0.07900
C1484       C  0.93860198  0.66526830  0.89592211    -0.11200
C1485       C  0.95985398  0.66473308  0.87763904    -0.10500
C1486       C  0.97627431  0.68750827  0.87362687    -0.01400
C1487       C  0.97084630  0.71043221  0.88935107    -0.11600
C1488       C  0.94981221  0.71077796  0.90778790    -0.10000
H1489       H  0.92681571  0.64733617  0.89905977     0.07900
H1490       H  0.96391956  0.64591901  0.86782638     0.11600
H1491       H  0.98341794  0.72802067  0.88769177     0.11400
H1492       H  0.94661030  0.72846219  0.91994224     0.07900
C1493       C  0.78359096  0.57891388  0.96636328    -0.11200
C1494       C  0.79965580  0.58515459  0.98855891     0.06000
C1495       C  0.80072249  0.56707160  0.01000901    -0.09900
C1496       C  0.78526154  0.54366296  0.00970098    -0.11600
C1497       C  0.76891481  0.53755989  0.98764303    -0.01400
C1498       C  0.76860946  0.55522144  0.96577861    -0.10500
C1499       C  0.81423275  0.61103069  0.98997801     0.06000
H1500       H  0.81281165  0.57153687  0.02742940     0.07900
H1501       H  0.78582832  0.53049359  0.02686487     0.11400
H1502       H  0.75599802  0.55121650  0.94862419     0.11600
H1503       H  0.78248643  0.59250224  0.94955501     0.07900
C1504       C  0.84147204  0.61191591  0.99647756    -0.11200
C1505       C  0.85480493  0.63646069  0.99886636    -0.10500
C1506       C  0.84099327  0.66096645  0.99635391    -0.01400
C1507       C  0.81390775  0.65966837  0.98825570    -0.11600
C1508       C  0.80077302  0.63510827  0.98527602    -0.10000
H1509       H  0.85248641  0.59356882  0.99955145     0.07900
H1510       H  0.87593417  0.63637519  0.00353926     0.11600
H1511       H  0.80261914  0.67747079  0.98376147     0.11400
H1512       H  0.77985068  0.63494740  0.97972282     0.07900
C1513       C  0.90508579  0.71281367  0.05385461    -0.11200
C1514       C  0.90498433  0.69193187  0.07246621     0.06000
C1515       C  0.88567217  0.67169664  0.07023213    -0.09900
C1516       C  0.86853465  0.67087756  0.04808047    -0.11600
C1517       C  0.87087506  0.69001013  0.02737493    -0.01400
C1518       C  0.88770012  0.71228653  0.03206748    -0.10500
C1519       C  0.92690421  0.68991683  0.09213532     0.06000
H1520       H  0.88479562  0.65576845  0.08486133     0.07900
H1521       H  0.85411697  0.65480017  0.04710461     0.11400
H1522       H  0.88907010  0.72819194  0.01744816     0.11600
H1523       H  0.91944542  0.72898258  0.05558249     0.07900
C1524       C  0.95328056  0.68858971  0.08286286    -0.11200
C1525       C  0.97452383  0.68662200  0.10074307    -0.10500
C1526       C  0.97019613  0.68709914  0.12875591    -0.01400
C1527       C  0.94332110  0.68726043  0.13778274    -0.11600
C1528       C  0.92196237  0.68867160  0.11971463    -0.10000
H1529       H  0.95742473  0.68852444  0.06155434     0.07900
H1530       H  0.99414240  0.68418147  0.09208861     0.11600
H1531       H  0.93893552  0.68654891  0.15901264     0.11400
H1532       H  0.90164986  0.68916170  0.12725381     0.07900
C1533       C  0.79795945  0.73382533  0.02015104    -0.11200
C1534       C  0.79890109  0.75446711  0.00117323     0.06000
C1535       C  0.82013821  0.75474510  0.98267968    -0.09900
C1536       C  0.83909481  0.73407690  0.98224465    -0.11600
C1537       C  0.83698291  0.71213340  0.99995063    -0.01400
C1538       C  0.81674173  0.71323448  0.01969241    -0.10500
C1539       C  0.77708032  0.77477458  0.00012406     0.06000
H1540       H  0.82174441  0.77061413  0.96805711     0.07900
H1541       H  0.85526308  0.73562409  0.96798075     0.11400
H1542       H  0.81501681  0.69747548  0.03443513     0.11600
H1543       H  0.78247011  0.73342512  0.03532726     0.07900
C1544       C  0.75045705  0.76689803  0.00433453    -0.11200
C1545       C  0.72964243  0.78538304  0.00306899    -0.10500
C1546       C  0.73444045  0.81253010  0.99666593    -0.01400
C1547       C  0.76145106  0.82055822  0.99394428    -0.11600
C1548       C  0.78237849  0.80192155  0.99509178    -0.10000
H1549       H  0.74556522  0.74621321  0.00849279     0.07900
H1550       H  0.70985501  0.77805702  0.00775429     0.11600
H1551       H  0.76635044  0.84139152  0.99063128     0.11400
H1552       H  0.80274593  0.80884590  0.99249101     0.07900
C1553       C  0.58251282  0.60119996  0.01298257    -0.11200
C1554       C  0.59735488  0.59582748  0.98959801     0.06000
C1555       C  0.59183272  0.61076469  0.96643071    -0.09900
C1556       C  0.57194772  0.63038956  0.96661088    -0.11600
C1557       C  0.55726463  0.63579578  0.99003234    -0.01400
C1558       C  0.56283214  0.62103352  0.01323439    -0.10500
C1559       C  0.61847377  0.57478751  0.98939910     0.06000
H1560       H  0.60312907  0.60757582  0.94819222     0.07900
H1561       H  0.56828465  0.64155426  0.94844376     0.11400
H1562       H  0.55173494  0.62457279  0.03154303     0.11600
H1563       H  0.58581573  0.58981419  0.03106705     0.07900
C1564       C  0.63445463  0.57041141  0.01211628    -0.11200
C1565       C  0.65406102  0.55051712  0.01205685    -0.10500
C1566       C  0.65844843  0.53470703  0.98917310    -0.01400
C1567       C  0.64269630  0.53916031  0.96637292    -0.11600
C1568       C  0.62284776  0.55884120  0.96653226    -0.10000
H1569       H  0.63207277  0.58259215  0.02990664     0.07900
H1570       H  0.66602436  0.54773165  0.02987154     0.11600
H1571       H  0.64544987  0.52716050  0.94849921     0.11400
H1572       H  0.61066358  0.56126730  0.94882858     0.07900
C1573       C  0.41648655  0.60133456  0.96858197    -0.11200
C1574       C  0.40206689  0.59623167  0.99229887     0.06000
C1575       C  0.40809592  0.61149486  0.01522611    -0.09900
C1576       C  0.42819322  0.63095572  0.01459665    -0.11600
C1577       C  0.44258159  0.63597952  0.99093425    -0.01400
C1578       C  0.43637829  0.62108848  0.96786938    -0.10500
C1579       C  0.38095217  0.57506972  0.99323898     0.06000
H1580       H  0.39708064  0.60866450  0.03368382     0.07900
H1581       H  0.43227430  0.64227937  0.03265177     0.11400
H1582       H  0.44718100  0.62441235  0.94935314     0.11600
H1583       H  0.41276950  0.58975898  0.95062647     0.07900
C1584       C  0.36479427  0.56972959  0.97080268    -0.11200
C1585       C  0.34509037  0.54983148  0.97173249    -0.10500
C1586       C  0.34077822  0.53501769  0.99522585    -0.01400
C1587       C  0.35675155  0.54038544  0.01769891    -0.11600
C1588       C  0.37670920  0.56000492  0.01666141    -0.10000
H1589       H  0.36706582  0.58117379  0.95257592     0.07900
H1590       H  0.33299055  0.54627811  0.95411802     0.11600
H1591       H  0.35409811  0.52913499  0.03601497     0.11400
H1592       H  0.38906420  0.56306306  0.03416886     0.07900
C1593       C  0.34169552  0.77259716  0.98946531    -0.11200
C1594       C  0.36484104  0.78784767  0.99369473     0.06000
C1595       C  0.36228921  0.81507960  0.99978000    -0.09900
C1596       C  0.33693841  0.82670187  0.00209224    -0.11600
C1597       C  0.31333776  0.81113506  0.99997970    -0.01400
C1598       C  0.31637511  0.78400937  0.99237813    -0.10500
C1599       C  0.39147067  0.77505960  0.99182935     0.06000
H1600       H  0.37992496  0.82739927  0.00249622     0.07900
H1601       H  0.33567284  0.84790673  0.00635738     0.11400
H1602       H  0.29940645  0.77132922  0.98811743     0.11600
H1603       H  0.34321619  0.75162805  0.98418403     0.07900
C1604       C  0.40904249  0.77559215  0.01371822    -0.11200
C1605       C  0.43286840  0.76090210  0.01301872    -0.10500
C1606       C  0.43980223  0.74591721  0.99016863    -0.01400
C1607       C  0.42273417  0.74649188  0.96783753    -0.11600
C1608       C  0.39868686  0.76066716  0.96877942    -0.10000
H1609       H  0.40377662  0.78646105  0.03175498     0.07900
H1610       H  0.44558840  0.76082193  0.03053370     0.11600
H1611       H  0.42738868  0.73501874  0.95001293     0.11400
H1612       H  0.38544432  0.76003400  0.95165768     0.07900
C1613       C  0.59465962  0.77075135  0.01550982    -0.11200
C1614       C  0.60708559  0.77878484  0.99154773     0.06000
C1615       C  0.59517433  0.77137533  0.96709925    -0.09900
C1616       C  0.57193457  0.75566975  0.96664749    -0.11600
C1617       C  0.55998943  0.74703253  0.99063399    -0.01400
C1618       C  0.57142476  0.75512825  0.01505942    -0.10500
C1619       C  0.63290088  0.79383216  0.99217705     0.06000
H1620       H  0.60390355  0.77757977  0.94825265     0.07900
H1621       H  0.56364872  0.74984600  0.94748169     0.11400
H1622       H  0.56284246  0.74877942  0.03393276     0.11600
H1623       H  0.60339447  0.77575531  0.03469814     0.07900
C1624       C  0.63790172  0.81319715  0.01201049    -0.11200
C1625       C  0.66267438  0.82623822  0.01349372    -0.10500
C1626       C  0.68357734  0.81989180  0.99548571    -0.01400
C1627       C  0.67767553  0.80168622  0.97460484    -0.11600
C1628       C  0.65302223  0.78854507  0.97325552    -0.10000
H1629       H  0.62247160  0.81858173  0.02626190     0.07900
H1630       H  0.66484516  0.84172739  0.02841961     0.11600
H1631       H  0.69267799  0.79706751  0.95962572     0.11400
H1632       H  0.64999067  0.77378303  0.95765731     0.07900
loop_ 
_geom_bond_atom_site_label_1 
_geom_bond_atom_site_label_2 
_geom_bond_distance 
_geom_bond_site_symmetry_2 
_ccdc_geom_bond_type 
O1           Ni9   1.917       .  S
O1           C11   1.281       .  A
O2           Ni9   1.919       .  S
O2           C12   1.282       .  A
O3           Ni9   1.926       .  S
O3           C13   1.284       .  A
O4           Ni9   1.924       .  S
O4           C14   1.283       .  A
O5          Ni10   1.915       .  S
O5           C14   1.281   1_554  A
O6          Ni10   1.916       .  S
O6           C13   1.281   1_554  A
O7          Ni10   1.923       .  S
O7           C12   1.283   1_554  A
O8          Ni10   1.923       .  S
O8           C11   1.283   1_554  A
Ni9         Ni10   2.385   1_556  S
C11        C1557   1.483       .  S
C12        C1606   1.484       .  S
C13        C1617   1.486       .  S
C14        C1577   1.483       .  S
C15        C1477   1.558       .  S
C15        C1506   1.556       .  S
C15        C1517   1.555   1_556  S
C15        C1537   1.556       .  S
C16        C1437   1.556       .  S
C16        C1457   1.558   1_556  S
C16        C1546   1.558       .  S
C16        C1626   1.557       .  S
O17         Ni25   1.917       .  S
O17          C27   1.282   1_554  A
O18         Ni25   1.919       .  S
O18          C28   1.282   1_554  A
O19         Ni25   1.921       .  S
O19          C29   1.283   1_554  A
O20         Ni25   1.922       .  S
O20          C30   1.282   1_554  A
O21         Ni26   1.922       .  S
O21          C30   1.282       .  A
O22         Ni26   1.916       .  S
O22          C29   1.281       .  A
O23         Ni26   1.922       .  S
O23          C28   1.283       .  A
O24         Ni26   1.931       .  S
O24          C27   1.284       .  A
Ni25        Ni26   2.385   1_554  S
C27        C1417   1.490       .  S
C28        C1566   1.483       .  S
C29        C1397   1.482       .  S
C30        C1497   1.484       .  S
C31        C1317   1.556   1_556  S
C31        C1337   1.563       .  S
C31        C1357   1.560       .  S
C31        C1377   1.562       .  S
C32        C1277   1.561       .  S
C32        C1297   1.559   1_556  S
C32        C1386   1.562       .  S
C32        C1426   1.564       .  S
O33         Ni41   1.917       .  S
O33          C43   1.281       .  A
O34         Ni41   1.913       .  S
O34          C44   1.281   1_554  A
O35         Ni41   1.917       .  S
O35          C45   1.282   1_554  A
O36         Ni41   1.927       .  S
O36          C46   1.284   1_554  A
O37         Ni42   1.917       .  S
O37          C46   1.282       .  A
O38         Ni42   1.919       .  S
O38          C45   1.282       .  A
O39         Ni42   1.925       .  S
O39          C44   1.283       .  A
O40         Ni42   1.924       .  S
O40          C43   1.283   1_556  A
Ni41        Ni42   2.387   1_554  S
C43        C1266   1.478       .  S
C44        C1406   1.481       .  S
C45        C1237   1.480       .  S
C46        C1366   1.487       .  S
C47        C1166   1.555       .  S
C47        C1177   1.555   1_554  S
C47        C1206   1.555       .  S
C47        C1226   1.558       .  S
C48        C1126   1.559       .  S
C48        C1146   1.553   1_554  S
C48        C1217   1.555       .  S
C48        C1257   1.558       .  S
C49        C1037   1.557       .  S
C49        C1057   1.557   1_554  S
C49        C1077   1.557       .  S
C49        C1106   1.561       .  S
C50         C997   1.561   1_554  S
C50        C1017   1.559       .  S
C50        C1097   1.554       .  S
C50        C1597   1.559   1_554  S
O51         Ni59   1.917       .  S
O51          C61   1.282       .  A
O52         Ni59   1.917       .  S
O52          C62   1.281       .  A
O53         Ni59   1.923       .  S
O53          C63   1.283       .  A
O54         Ni59   1.922       .  S
O54          C64   1.283       .  A
O55         Ni60   1.914       .  S
O55          C64   1.281   1_554  A
O56         Ni60   1.912       .  S
O56          C63   1.281   1_554  A
O57         Ni60   1.921       .  S
O57          C62   1.283   1_554  A
O58         Ni60   1.917       .  S
O58          C61   1.282   1_554  A
Ni59        Ni60   2.386   1_556  S
C61        C1197   1.482       .  S
C62        C1586   1.482       .  S
C63        C1246   1.481       .  S
C64        C1086   1.482   1_556  S
O65         Ni73   1.925       .  S
O65          C75   1.283       .  A
O66         Ni73   1.921       .  S
O66          C76   1.282       .  A
O67         Ni73   1.915       .  S
O67          C77   1.281       .  A
O68         Ni73   1.917       .  S
O68          C78   1.282       .  A
O69         Ni74   1.923       .  S
O69          C78   1.283       .  A
O70         Ni74   1.921       .  S
O70          C77   1.282       .  A
O71         Ni74   1.925       .  S
O71          C76   1.283       .  A
O72         Ni74   1.923       .  S
O72          C75   1.283       .  A
Ni73        Ni74   2.385       .  S
C75         C957   1.488       .  S
C76         C937   1.486       .  S
C77         C926   1.481       .  S
C78         C977   1.483       .  S
C79         C837   1.561       .  S
C79         C857   1.560       .  S
C79         C877   1.555   1_565  S
C79         C897   1.560       .  S
C80         C906   1.556       .  S
C80         C966   1.559       .  S
C80        C1346   1.560   1_565  S
C80        C1446   1.558       .  S
O81         Ni89   1.914       .  S
O81          C91   1.281       .  A
O82         Ni89   1.916       .  S
O82          C92   1.281       .  A
O83         Ni89   1.921       .  S
O83          C93   1.282       .  A
O84         Ni89   1.919       .  S
O84          C94   1.282       .  A
O85         Ni90   1.922       .  S
O85          C94   1.283   1_545  A
O86         Ni90   1.917       .  S
O86          C93   1.282   1_545  A
O87         Ni90   1.918       .  S
O87          C92   1.282   1_545  A
O88         Ni90   1.920       .  S
O88          C91   1.282   1_545  A
Ni89        Ni90   2.386   1_565  S
C91         C817   1.481       .  S
C92         C917   1.479       .  S
C93         C806   1.482       .  S
C94         C866   1.486       .  S
C95         C726   1.559       .  S
C95         C737   1.556       .  S
C95         C766   1.559       .  S
C95         C777   1.558       .  S
C96         C786   1.555       .  S
C96         C986   1.556       .  S
C96        C1006   1.554       .  S
C96        C1137   1.555       .  S
O97        Ni105   1.923       .  S
O97         C107   1.283       .  A
O98        Ni105   1.918       .  S
O98         C108   1.282       .  A
O99        Ni105   1.924       .  S
O99         C109   1.283       .  A
O100       Ni105   1.925       .  S
O100        C110   1.283       .  A
O101       Ni106   1.921       .  S
O101        C110   1.283       .  A
O102       Ni106   1.921       .  S
O102        C109   1.282       .  A
O103       Ni106   1.919       .  S
O103        C108   1.282       .  A
O104       Ni106   1.919       .  S
O104        C107   1.282       .  A
Ni105      Ni106   2.385       .  S
C107        C757   1.486       .  S
C108        C677   1.483       .  S
C109        C946   1.485       .  S
C110        C697   1.488       .  S
C111        C646   1.564       .  S
C111        C657   1.570       .  S
C111       C1026   1.570       .  S
C111       C1117   1.569       .  S
C112        C597   1.561       .  S
C112        C626   1.558       .  S
C112        C666   1.560       .  S
C112        C706   1.559       .  S
C113        C566   1.555       .  S
C113        C577   1.550       .  S
C113       C1326   1.556       .  S
C113       C1466   1.556       .  S
C114        C517   1.551       .  S
C114        C537   1.553   1_565  S
C114        C586   1.547       .  S
C114        C826   1.553       .  S
O115       Ni123   1.915       .  S
O115        C125   1.281       .  A
O116       Ni123   1.913       .  S
O116        C126   1.281       .  A
O117       Ni123   1.922       .  S
O117        C127   1.283       .  A
O118       Ni123   1.925       .  S
O118        C128   1.283       .  A
O119       Ni124   1.914   1_565  S
O119        C128   1.281       .  A
O120       Ni124   1.914   1_565  S
O120        C127   1.281       .  A
O121       Ni124   1.923   1_565  S
O121        C126   1.283       .  A
O122       Ni124   1.921   1_565  S
O122        C125   1.283       .  A
Ni123      Ni124   2.387   1_565  S
C125        C637   1.483       .  S
C126        C797   1.479       .  S
C127        C686   1.477       .  S
C128        C557   1.481       .  S
O129       Ni137   1.920       .  S
O129        C139   1.283   1_655  A
O130       Ni137   1.915       .  S
O130        C140   1.281       .  A
O131       Ni137   1.922       .  S
O131        C141   1.282       .  A
O132       Ni137   1.924       .  S
O132        C142   1.283   1_655  A
O133       Ni138   1.921       .  S
O133        C142   1.283       .  A
O134       Ni138   1.917       .  S
O134        C141   1.282   1_455  A
O135       Ni138   1.915       .  S
O135        C140   1.281   1_455  A
O136       Ni138   1.919       .  S
O136        C139   1.282       .  A
Ni137      Ni138   2.386   1_655  S
C139        C497   1.485       .  S
C140        C457   1.476       .  S
C141        C437   1.482       .  S
C142        C486   1.488       .  S
C143        C397   1.556   1_455  S
C143        C426   1.552       .  S
C143        C746   1.557       .  S
C143        C846   1.557   1_455  S
C144        C417   1.551       .  S
C144        C477   1.555       .  S
C144       C1066   1.556       .  S
C144       C1486   1.554   1_455  S
O145       Ni153   1.912       .  S
O145        C155   1.281       .  A
O146       Ni153   1.913       .  S
O146        C156   1.281       .  A
O147       Ni153   1.915       .  S
O147        C157   1.282       .  A
O148       Ni153   1.915       .  S
O148        C158   1.281       .  A
O149       Ni154   1.915       .  S
O149        C158   1.281   1_455  A
O150       Ni154   1.914       .  S
O150        C157   1.281   1_455  A
O151       Ni154   1.929       .  S
O151        C156   1.284   1_455  A
O152       Ni154   1.928       .  S
O152        C155   1.284   1_455  A
Ni153      Ni154   2.386   1_655  S
C155        C406   1.483       .  S
C156        C366   1.483       .  S
C157        C466   1.478       .  S
C158        C377   1.479       .  S
C159        C326   1.557       .  S
C159        C346   1.556       .  S
C159       C1046   1.559   1_655  S
C159       C1526   1.557       .  S
C160        C337   1.560       .  S
C160        C386   1.557       .  S
C160        C526   1.557       .  S
C160        C617   1.556   1_655  S
O161       Ni169   1.918       .  S
O161        C171   1.281   1_455  A
O162       Ni169   1.919       .  S
O162        C172   1.282   1_455  A
O163       Ni169   1.925       .  S
O163        C173   1.283   1_455  A
O164       Ni169   1.922       .  S
O164        C174   1.282   1_455  A
O165       Ni170   1.917       .  S
O165        C174   1.281       .  A
O166       Ni170   1.913       .  S
O166        C173   1.281       .  A
O167       Ni170   1.925       .  S
O167        C172   1.283       .  A
O168       Ni170   1.926       .  S
O168        C171   1.284       .  A
Ni169      Ni170   2.386   1_455  S
C171        C297   1.485       .  S
C172        C357   1.486       .  S
C173        C277   1.481       .  S
C174        C317   1.479       .  S
C175        C237   1.556       .  S
C175        C266   1.556       .  S
C175        C717   1.559       .  S
C175        C886   1.559   1_455  S
C176        C257   1.555       .  S
C176        C506   1.557       .  S
C176       C1186   1.554       .  S
C176       C1286   1.556   1_455  S
C177        C197   1.558       .  S
C177        C217   1.555   1_655  S
C177        C546   1.555       .  S
C177        C606   1.562   1_655  S
C178        C226   1.555       .  S
C178        C306   1.557   1_455  S
C178       C1157   1.556       .  S
C178       C1306   1.560   1_455  S
O179       Ni187   1.922       .  S
O179        C189   1.282   1_455  A
O180       Ni187   1.918       .  S
O180        C190   1.281   1_455  A
O181       Ni187   1.919       .  S
O181        C191   1.282   1_455  A
O182       Ni187   1.915       .  S
O182        C192   1.281       .  A
O183       Ni188   1.929       .  S
O183        C192   1.284   1_655  A
O184       Ni188   1.923       .  S
O184        C191   1.283       .  A
O185       Ni188   1.922       .  S
O185        C190   1.283       .  A
O186       Ni188   1.919       .  S
O186        C189   1.282       .  A
Ni187      Ni188   2.386   1_455  S
C189        C246   1.482   1_655  S
C190        C286   1.482       .  S
C191        C446   1.484       .  S
C192        C206   1.484       .  S
C193        C194   1.404   1_655  A
C193        C198   1.404       .  A
C193        H203   1.083       .  S
C194        C199   1.487       .  S
C194        C195   1.401       .  A
C195        C196   1.395       .  A
C195        H200   1.083       .  S
C196        C197   1.416   1_455  A
C196        H201   1.080       .  S
C197        C198   1.415       .  A
C198        H202   1.083       .  S
C199        C204   1.406   1_455  A
C199        C208   1.405       .  A
C204        C205   1.404       .  A
C204        H209   1.083       .  S
C205        C206   1.407   1_655  A
C205        H210   1.083       .  S
C206        C207   1.406       .  A
C207        C208   1.397       .  A
C207        H211   1.083       .  S
C208        H212   1.083       .  S
C213        C214   1.396   1_655  A
C213        C218   1.394       .  A
C213        H223   1.083       .  S
C214        C219   1.475       .  S
C214        C215   1.402       .  A
C215        C216   1.402       .  A
C215        H220   1.083       .  S
C216        C217   1.414       .  A
C216        H221   1.078       .  S
C217        C218   1.416   1_455  A
C218        H222   1.083       .  S
C219        C224   1.400   1_455  A
C219        C228   1.398       .  A
C224        C225   1.400       .  A
C224        H229   1.083       .  S
C225        C226   1.415   1_655  A
C225        H230   1.078       .  S
C226        C227   1.416       .  A
C227        C228   1.397       .  A
C227        H231   1.083       .  S
C228        H232   1.083       .  S
C233        C234   1.400       .  A
C233        C238   1.397       .  A
C233        H243   1.083   1_455  S
C234        C239   1.481       .  S
C234        C235   1.401       .  A
C235        C236   1.401       .  A
C235        H240   1.083       .  S
C236        C237   1.416       .  A
C236        H241   1.083       .  S
C237        C238   1.416       .  A
C238        H242   1.080   1_455  S
C239        C244   1.404       .  A
C239        C248   1.404   1_455  A
C244        C245   1.402       .  A
C244        H249   1.083       .  S
C245        C246   1.407       .  A
C245        H250   1.083       .  S
C246        C247   1.406   1_455  A
C247        C248   1.398       .  A
C247        H251   1.083       .  S
C248        H252   1.083       .  S
C253        C254   1.404   1_655  A
C253        C258   1.401       .  A
C253        H263   1.083       .  S
C254        C259   1.486       .  S
C254        C255   1.401       .  A
C255        C256   1.398       .  A
C255        H260   1.083       .  S
C256        C257   1.417       .  A
C256        H261   1.080       .  S
C257        C258   1.413   1_455  A
C258        H262   1.083       .  S
C259        C264   1.403   1_455  A
C259        C268   1.403       .  A
C264        C265   1.401       .  A
C264        H269   1.083       .  S
C265        C266   1.415   1_655  A
C265        H270   1.079       .  S
C266        C267   1.414       .  A
C267        C268   1.398       .  A
C267        H271   1.083       .  S
C268        H272   1.083       .  S
C273        C274   1.407       .  A
C273        C278   1.397       .  A
C273        H283   1.082       .  S
C274        C279   1.493       .  S
C274        C275   1.409   1_655  A
C275        C276   1.401       .  A
C275        H280   1.082       .  S
C276        C277   1.404   1_455  A
C276        H281   1.083       .  S
C277        C278   1.405       .  A
C278        H282   1.083       .  S
C279        C284   1.408       .  A
C279        C288   1.407   1_655  A
C284        C285   1.399       .  A
C284        H289   1.082       .  S
C285        C286   1.404       .  A
C285        H290   1.083       .  S
C286        C287   1.406   1_655  A
C287        C288   1.399       .  A
C287        H291   1.083       .  S
C288        H292   1.082       .  S
C293        C294   1.405       .  A
C293        C298   1.400       .  A
C293        H303   1.083       .  S
C294        C299   1.484       .  S
C294        C295   1.404   1_655  A
C295        C296   1.401       .  A
C295        H300   1.083       .  S
C296        C297   1.407   1_455  A
C296        H301   1.083       .  S
C297        C298   1.406       .  A
C298        H302   1.083       .  S
C299        C304   1.402       .  A
C299        C308   1.400       .  A
C304        C305   1.402   1_655  A
C304        H309   1.083   1_655  S
C305        C306   1.415   1_455  A
C305        H310   1.083       .  S
C306        C307   1.417       .  A
C307        C308   1.398       .  A
C307        H311   1.080       .  S
C308        H312   1.083       .  S
C313        C314   1.404       .  A
C313        C318   1.399       .  A
C313        H323   1.083       .  S
C314        C319   1.483       .  S
C314        C315   1.405   1_655  A
C315        C316   1.400       .  A
C315        H320   1.083       .  S
C316        C317   1.404   1_455  A
C316        H321   1.083       .  S
C317        C318   1.406       .  A
C318        H322   1.083       .  S
C319        C324   1.401       .  A
C319        C328   1.402       .  A
C324        C325   1.399       .  A
C324        H329   1.083       .  S
C325        C326   1.416       .  A
C325        H330   1.083       .  S
C326        C327   1.415       .  A
C327        C328   1.398       .  A
C327        H331   1.079       .  S
C328        H332   1.083       .  S
C333        C334   1.406       .  A
C333        C338   1.405       .  A
C333        H343   1.083       .  S
C334        C339   1.491       .  S
C334        C335   1.400       .  A
C335        C336   1.394       .  A
C335        H340   1.083   1_655  S
C336        C337   1.417       .  A
C336        H341   1.078   1_655  S
C337        C338   1.414       .  A
C338        H342   1.083       .  S
C339        C344   1.403       .  A
C339        C348   1.405   1_655  A
C344        C345   1.402       .  A
C344        H349   1.083       .  S
C345        C346   1.416       .  A
C345        H350   1.079       .  S
C346        C347   1.412   1_655  A
C347        C348   1.397       .  A
C347        H351   1.083       .  S
C348        H352   1.083       .  S
C353        C354   1.409       .  A
C353        C358   1.401       .  A
C353        H363   1.082       .  S
C354        C359   1.496       .  S
C354        C355   1.407   1_655  A
C355        C356   1.399       .  A
C355        H360   1.082       .  S
C356        C357   1.406   1_455  A
C356        H361   1.083       .  S
C357        C358   1.405       .  A
C358        H362   1.083       .  S
C359        C364   1.407       .  A
C359        C368   1.410   1_655  A
C364        C365   1.398       .  A
C364        H369   1.082       .  S
C365        C366   1.405       .  A
C365        H370   1.083       .  S
C366        C367   1.404   1_655  A
C367        C368   1.401       .  A
C367        H371   1.083       .  S
C368        H372   1.082       .  S
C373        C374   1.405       .  A
C373        C378   1.397       .  A
C373        H383   1.083       .  S
C374        C379   1.485       .  S
C374        C375   1.406   1_655  A
C375        C376   1.397       .  A
C375        H380   1.083       .  S
C376        C377   1.405   1_455  A
C376        H381   1.083       .  S
C377        C378   1.405       .  A
C378        H382   1.083       .  S
C379        C384   1.403       .  A
C379        C388   1.403   1_655  A
C384        C385   1.395       .  A
C384        H389   1.083       .  S
C385        C386   1.413       .  A
C385        H390   1.083       .  S
C386        C387   1.415   1_655  A
C387        C388   1.396       .  A
C387        H391   1.078       .  S
C388        H392   1.083       .  S
C393        C394   1.401       .  A
C393        C398   1.401   1_655  A
C393        H403   1.083   1_655  S
C394        C399   1.481       .  S
C394        C395   1.400       .  A
C395        C396   1.395       .  A
C395        H400   1.083       .  S
C396        C397   1.415       .  A
C396        H401   1.080       .  S
C397        C398   1.415   1_655  A
C398        H402   1.083       .  S
C399        C404   1.402       .  A
C399        C408   1.406   1_655  A
C404        C405   1.396       .  A
C404        H409   1.083       .  S
C405        C406   1.406       .  A
C405        H410   1.083       .  S
C406        C407   1.407   1_655  A
C407        C408   1.403       .  A
C407        H411   1.083       .  S
C408        H412   1.083       .  S
C413        C414   1.406   1_655  A
C413        C418   1.399       .  A
C413        H423   1.082       .  S
C414        C419   1.497       .  S
C414        C415   1.408       .  A
C415        C416   1.397       .  A
C415        H420   1.081       .  S
C416        C417   1.410       .  A
C416        H421   1.083       .  S
C417        C418   1.413   1_455  A
C418        H422   1.080       .  S
C419        C424   1.409   1_455  A
C419        C428   1.405       .  A
C424        C425   1.402       .  A
C424        H429   1.082       .  S
C425        C426   1.412   1_655  A
C425        H430   1.080       .  S
C426        C427   1.412       .  A
C427        C428   1.394       .  A
C427        H431   1.083       .  S
C428        H432   1.081       .  S
C433        C434   1.408       .  A
C433        C438   1.401       .  A
C433        H443   1.082       .  S
C434        C439   1.493       .  S
C434        C435   1.408   1_655  A
C435        C436   1.398       .  A
C435        H440   1.082       .  S
C436        C437   1.404   1_455  A
C436        H441   1.083       .  S
C437        C438   1.405       .  A
C438        H442   1.083       .  S
C439        C444   1.408       .  A
C439        C448   1.407   1_655  A
C444        C445   1.402       .  A
C444        H449   1.082       .  S
C445        C446   1.406       .  A
C445        H450   1.083       .  S
C446        C447   1.404   1_655  A
C447        C448   1.397       .  A
C447        H451   1.083       .  S
C448        H452   1.082       .  S
C453        C454   1.407       .  A
C453        C458   1.396       .  A
C453        H463   1.082       .  S
C454        C459   1.487       .  S
C454        C455   1.407   1_655  A
C455        C456   1.397       .  A
C455        H460   1.082       .  S
C456        C457   1.404   1_455  A
C456        H461   1.083       .  S
C457        C458   1.404       .  A
C458        H462   1.083       .  S
C459        C464   1.406       .  A
C459        C468   1.407   1_655  A
C464        C465   1.396       .  A
C464        H469   1.082       .  S
C465        C466   1.404       .  A
C465        H470   1.083       .  S
C466        C467   1.405   1_655  A
C467        C468   1.397       .  A
C467        H471   1.083       .  S
C468        H472   1.082       .  S
C473        C474   1.405       .  A
C473        C478   1.399       .  A
C473        H483   1.082       .  S
C474        C479   1.494       .  S
C474        C475   1.405   1_455  A
C475        C476   1.400       .  A
C475        H480   1.083       .  S
C476        C477   1.413   1_655  A
C476        H481   1.083       .  S
C477        C478   1.414       .  A
C478        H482   1.080       .  S
C479        C484   1.407       .  A
C479        C488   1.408   1_455  A
C484        C485   1.400       .  A
C484        H489   1.083       .  S
C485        C486   1.407       .  A
C485        H490   1.083       .  S
C486        C487   1.406   1_455  A
C487        C488   1.402       .  A
C487        H491   1.083       .  S
C488        H492   1.083       .  S
C493        C494   1.408       .  A
C493        C498   1.401       .  A
C493        H503   1.082       .  S
C494        C499   1.495       .  S
C494        C495   1.408   1_455  A
C495        C496   1.398       .  A
C495        H500   1.082       .  S
C496        C497   1.405   1_655  A
C496        H501   1.083       .  S
C497        C498   1.406       .  A
C498        H502   1.083       .  S
C499        C504   1.407       .  A
C499        C508   1.404   1_455  A
C504        C505   1.401       .  A
C504        H509   1.082       .  S
C505        C506   1.412       .  A
C505        H510   1.083       .  S
C506        C507   1.415   1_455  A
C507        C508   1.396       .  A
C507        H511   1.080       .  S
C508        H512   1.082       .  S
C513        C514   1.411       .  A
C513        C518   1.405       .  A
C513        H523   1.081       .  S
C514        C519   1.503       .  S
C514        C515   1.409       .  A
C515        C516   1.389       .  A
C515        H520   1.080       .  S
C516        C517   1.408       .  A
C516        H521   1.083       .  S
C517        C518   1.412       .  A
C518        H522   1.081       .  S
C519        C524   1.411       .  A
C519        C528   1.405       .  A
C524        C525   1.406       .  A
C524        H529   1.081       .  S
C525        C526   1.412       .  A
C525        H530   1.077       .  S
C526        C527   1.413       .  A
C527        C528   1.389       .  A
C527        H531   1.083       .  S
C528        H532   1.080       .  S
C533        C534   1.404       .  A
C533        C538   1.403       .  A
C533        H543   1.083       .  S
C534        C539   1.483       .  S
C534        C535   1.401       .  A
C535        C536   1.390       .  A
C535        H540   1.083       .  S
C536        C537   1.413       .  A
C536        H541   1.081   1_545  S
C537        C538   1.414       .  A
C538        H542   1.083       .  S
C539        C544   1.401       .  A
C539        C548   1.404       .  A
C544        C545   1.392       .  A
C544        H549   1.083       .  S
C545        C546   1.414       .  A
C545        H550   1.083       .  S
C546        C547   1.414       .  A
C547        C548   1.401       .  A
C547        H551   1.079       .  S
C548        H552   1.083       .  S
C553        C554   1.404       .  A
C553        C558   1.401       .  A
C553        H563   1.083       .  S
C554        C559   1.480       .  S
C554        C555   1.403   1_565  A
C555        C556   1.397       .  A
C555        H560   1.083       .  S
C556        C557   1.406   1_545  A
C556        H561   1.083       .  S
C557        C558   1.406       .  A
C558        H562   1.083       .  S
C559        C564   1.400       .  A
C559        C568   1.401       .  A
C564        C565   1.395       .  A
C564        H569   1.083       .  S
C565        C566   1.416       .  A
C565        H570   1.080       .  S
C566        C567   1.414       .  A
C567        C568   1.401       .  A
C567        H571   1.083       .  S
C568        H572   1.083       .  S
C573        C574   1.398       .  A
C573        C578   1.393       .  A
C573        H583   1.083       .  S
C574        C579   1.474       .  S
C574        C575   1.401       .  A
C575        C576   1.401       .  A
C575        H580   1.083   1_565  S
C576        C577   1.415       .  A
C576        H581   1.080   1_565  S
C577        C578   1.413       .  A
C578        H582   1.083       .  S
C579        C584   1.399       .  A
C579        C588   1.399       .  A
C584        C585   1.395       .  A
C584        H589   1.084       .  S
C585        C586   1.414       .  A
C585        H590   1.080       .  S
C586        C587   1.414       .  A
C587        C588   1.399       .  A
C587        H591   1.083       .  S
C588        H592   1.083       .  S
C593        C594   1.401       .  A
C593        C598   1.396   1_545  A
C593        H603   1.083       .  S
C594        C599   1.487       .  S
C594        C595   1.404       .  A
C595        C596   1.405       .  A
C595        H600   1.083       .  S
C596        C597   1.416   1_545  A
C596        H601   1.079       .  S
C597        C598   1.416       .  A
C598        H602   1.083       .  S
C599        C604   1.399       .  A
C599        C608   1.404       .  A
C604        C605   1.395       .  A
C604        H609   1.084       .  S
C605        C606   1.419       .  A
C605        H610   1.080   1_455  S
C606        C607   1.415       .  A
C607        C608   1.406       .  A
C607        H611   1.083       .  S
C608        H612   1.083       .  S
C613        C614   1.399       .  A
C613        C618   1.393       .  A
C613        H623   1.083       .  S
C614        C619   1.481       .  S
C614        C615   1.403       .  A
C615        C616   1.402       .  A
C615        H620   1.083       .  S
C616        C617   1.414       .  A
C616        H621   1.083       .  S
C617        C618   1.417       .  A
C618        H622   1.080   1_455  S
C619        C624   1.400       .  A
C619        C628   1.402       .  A
C624        C625   1.395       .  A
C624        H629   1.083       .  S
C625        C626   1.415       .  A
C625        H630   1.083       .  S
C626        C627   1.416       .  A
C627        C628   1.401       .  A
C627        H631   1.078       .  S
C628        H632   1.083       .  S
C633        C634   1.405       .  A
C633        C638   1.398       .  A
C633        H643   1.083   1_565  S
C634        C639   1.485       .  S
C634        C635   1.405       .  A
C635        C636   1.399       .  A
C635        H640   1.083       .  S
C636        C637   1.407       .  A
C636        H641   1.083       .  S
C637        C638   1.405       .  A
C638        H642   1.083   1_565  S
C639        C644   1.401       .  A
C639        C648   1.400       .  A
C644        C645   1.397       .  A
C644        H649   1.083       .  S
C645        C646   1.415       .  A
C645        H650   1.077       .  S
C646        C647   1.420       .  A
C647        C648   1.398       .  A
C647        H651   1.081       .  S
C648        H652   1.083       .  S
C653        C654   1.404       .  A
C653        C658   1.403       .  A
C653        H663   1.082   1_565  S
C654        C659   1.497       .  S
C654        C655   1.403       .  A
C655        C656   1.397       .  A
C655        H660   1.082       .  S
C656        C657   1.415       .  A
C656        H661   1.073       .  S
C657        C658   1.419       .  A
C658        H662   1.081   1_565  S
C659        C664   1.407       .  A
C659        C668   1.404       .  A
C664        C665   1.404       .  A
C664        H669   1.082   1_565  S
C665        C666   1.414       .  A
C665        H670   1.083   1_565  S
C666        C667   1.416       .  A
C667        C668   1.395       .  A
C667        H671   1.078       .  S
C668        H672   1.082       .  S
C673        C674   1.407       .  A
C673        C678   1.398       .  A
C673        H683   1.082       .  S
C674        C679   1.492       .  S
C674        C675   1.408       .  A
C675        C676   1.399       .  A
C675        H680   1.082   1_565  S
C676        C677   1.406       .  A
C676        H681   1.083   1_565  S
C677        C678   1.405       .  A
C678        H682   1.083       .  S
C679        C684   1.409       .  A
C679        C688   1.408       .  A
C684        C685   1.398       .  A
C684        H689   1.082       .  S
C685        C686   1.403       .  A
C685        H690   1.083       .  S
C686        C687   1.404       .  A
C687        C688   1.398       .  A
C687        H691   1.083   1_565  S
C688        H692   1.082   1_565  S
C693        C694   1.407       .  A
C693        C698   1.398       .  A
C693        H703   1.082   1_565  S
C694        C699   1.495       .  S
C694        C695   1.408       .  A
C695        C696   1.404       .  A
C695        H700   1.083       .  S
C696        C697   1.407       .  A
C696        H701   1.083       .  S
C697        C698   1.405       .  A
C698        H702   1.083   1_565  S
C699        C704   1.403       .  A
C699        C708   1.406       .  A
C704        C705   1.397       .  A
C704        H709   1.083   1_565  S
C705        C706   1.415       .  A
C705        H710   1.079   1_565  S
C706        C707   1.415       .  A
C707        C708   1.403       .  A
C707        H711   1.083       .  S
C708        H712   1.083       .  S
C713        C714   1.404       .  A
C713        C718   1.397       .  A
C713        H723   1.083       .  S
C714        C719   1.491       .  S
C714        C715   1.405       .  A
C715        C716   1.404       .  A
C715        H720   1.083       .  S
C716        C717   1.415       .  A
C716        H721   1.079       .  S
C717        C718   1.413       .  A
C718        H722   1.083       .  S
C719        C724   1.405       .  A
C719        C728   1.403       .  A
C724        C725   1.405       .  A
C724        H729   1.083       .  S
C725        C726   1.415   1_545  A
C725        H730   1.083       .  S
C726        C727   1.415       .  A
C727        C728   1.395   1_565  A
C727        H731   1.080       .  S
C728        H732   1.083       .  S
C733        C734   1.402       .  A
C733        C738   1.404       .  A
C733        H743   1.083       .  S
C734        C739   1.477       .  S
C734        C735   1.398       .  A
C735        C736   1.393       .  A
C735        H740   1.084       .  S
C736        C737   1.415       .  A
C736        H741   1.083       .  S
C737        C738   1.416       .  A
C738        H742   1.079       .  S
C739        C744   1.399       .  A
C739        C748   1.401       .  A
C744        C745   1.398       .  A
C744        H749   1.083       .  S
C745        C746   1.416       .  A
C745        H750   1.083       .  S
C746        C747   1.414       .  A
C747        C748   1.399       .  A
C747        H751   1.079       .  S
C748        H752   1.083       .  S
C753        C754   1.406       .  A
C753        C758   1.398       .  A
C753        H763   1.083   1_565  S
C754        C759   1.492       .  S
C754        C755   1.408       .  A
C755        C756   1.402       .  A
C755        H760   1.083       .  S
C756        C757   1.407       .  A
C756        H761   1.083       .  S
C757        C758   1.406       .  A
C758        H762   1.083   1_565  S
C759        C764   1.404       .  A
C759        C768   1.404       .  A
C764        C765   1.399       .  A
C764        H769   1.082       .  S
C765        C766   1.414       .  A
C765        H770   1.083       .  S
C766        C767   1.414       .  A
C767        C768   1.399       .  A
C767        H771   1.079   1_565  S
C768        H772   1.083   1_565  S
C773        C774   1.405       .  A
C773        C778   1.402       .  A
C773        H783   1.082       .  S
C774        C779   1.495       .  S
C774        C775   1.404       .  A
C775        C776   1.398       .  A
C775        H780   1.083       .  S
C776        C777   1.415       .  A
C776        H781   1.079       .  S
C777        C778   1.414       .  A
C778        H782   1.083       .  S
C779        C784   1.406       .  A
C779        C788   1.404       .  A
C784        C785   1.403       .  A
C784        H789   1.082       .  S
C785        C786   1.413       .  A
C785        H790   1.079       .  S
C786        C787   1.413       .  A
C787        C788   1.398       .  A
C787        H791   1.083   1_565  S
C788        H792   1.083   1_565  S
C793        C794   1.409   1_545  A
C793        C798   1.400       .  A
C793        H803   1.082       .  S
C794        C799   1.492       .  S
C794        C795   1.407       .  A
C795        C796   1.397       .  A
C795        H800   1.082       .  S
C796        C797   1.404       .  A
C796        H801   1.083       .  S
C797        C798   1.404   1_565  A
C798        H802   1.083       .  S
C799        C804   1.408       .  A
C799        C808   1.407   1_565  A
C804        C805   1.399       .  A
C804        H809   1.082       .  S
C805        C806   1.405       .  A
C805        H810   1.083       .  S
C806        C807   1.405   1_565  A
C807        C808   1.398       .  A
C807        H811   1.083       .  S
C808        H812   1.082       .  S
C813        C814   1.405       .  A
C813        C818   1.397       .  A
C813        H823   1.083       .  S
C814        C819   1.483       .  S
C814        C815   1.405   1_565  A
C815        C816   1.399       .  A
C815        H820   1.083       .  S
C816        C817   1.406   1_545  A
C816        H821   1.083       .  S
C817        C818   1.406       .  A
C818        H822   1.083       .  S
C819        C824   1.402       .  A
C819        C828   1.403   1_565  A
C824        C825   1.394       .  A
C824        H829   1.083       .  S
C825        C826   1.413       .  A
C825        H830   1.083       .  S
C826        C827   1.415   1_565  A
C827        C828   1.399       .  A
C827        H831   1.079       .  S
C828        H832   1.083       .  S
C833        C834   1.410       .  A
C833        C838   1.409       .  A
C833        H843   1.082       .  S
C834        C839   1.499       .  S
C834        C835   1.403       .  A
C835        C836   1.391       .  A
C835        H840   1.082       .  S
C836        C837   1.415       .  A
C836        H841   1.081       .  S
C837        C838   1.413       .  A
C838        H842   1.083       .  S
C839        C844   1.407       .  A
C839        C848   1.406       .  A
C844        C845   1.406       .  A
C844        H849   1.082       .  S
C845        C846   1.415       .  A
C845        H850   1.083       .  S
C846        C847   1.413       .  A
C847        C848   1.393       .  A
C847        H851   1.080   1_655  S
C848        H852   1.082       .  S
C853        C854   1.405       .  A
C853        C858   1.401       .  A
C853        H863   1.083       .  S
C854        C859   1.492       .  S
C854        C855   1.403   1_565  A
C855        C856   1.397       .  A
C855        H860   1.082       .  S
C856        C857   1.415   1_545  A
C856        H861   1.083       .  S
C857        C858   1.414       .  A
C858        H862   1.078       .  S
C859        C864   1.408   1_565  A
C859        C868   1.406       .  A
C864        C865   1.401       .  A
C864        H869   1.083       .  S
C865        C866   1.406   1_545  A
C865        H870   1.083       .  S
C866        C867   1.406       .  A
C867        C868   1.399       .  A
C867        H871   1.083       .  S
C868        H872   1.083       .  S
C873        C874   1.407       .  A
C873        C878   1.408       .  A
C873        H883   1.083       .  S
C874        C879   1.486       .  S
C874        C875   1.399       .  A
C875        C876   1.390       .  A
C875        H880   1.083       .  S
C876        C877   1.414       .  A
C876        H881   1.083   1_545  S
C877        C878   1.414       .  A
C878        H882   1.080       .  S
C879        C884   1.402       .  A
C879        C888   1.402       .  A
C884        C885   1.404       .  A
C884        H889   1.083       .  S
C885        C886   1.417       .  A
C885        H890   1.083       .  S
C886        C887   1.415       .  A
C887        C888   1.393       .  A
C887        H891   1.079   1_655  S
C888        H892   1.083       .  S
C893        C894   1.399       .  A
C893        C898   1.397       .  A
C893        H903   1.084       .  S
C894        C899   1.486       .  S
C894        C895   1.403       .  A
C895        C896   1.405       .  A
C895        H900   1.083       .  S
C896        C897   1.416       .  A
C896        H901   1.082       .  S
C897        C898   1.417       .  A
C898        H902   1.079       .  S
C899        C904   1.402       .  A
C899        C908   1.403       .  A
C904        C905   1.398       .  A
C904        H909   1.083   1_565  S
C905        C906   1.413       .  A
C905        H910   1.083   1_565  S
C906        C907   1.417       .  A
C907        C908   1.404       .  A
C907        H911   1.080       .  S
C908        H912   1.083       .  S
C913        C914   1.407       .  A
C913        C918   1.398   1_565  A
C913        H923   1.082   1_565  S
C914        C919   1.490       .  S
C914        C915   1.407       .  A
C915        C916   1.398       .  A
C915        H920   1.082       .  S
C916        C917   1.404       .  A
C916        H921   1.083       .  S
C917        C918   1.404   1_565  A
C918        H922   1.083       .  S
C919        C924   1.407       .  A
C919        C928   1.407       .  A
C924        C925   1.399       .  A
C924        H929   1.082   1_565  S
C925        C926   1.405       .  A
C925        H930   1.083   1_565  S
C926        C927   1.405       .  A
C927        C928   1.397       .  A
C927        H931   1.083       .  S
C928        H932   1.082       .  S
C933        C934   1.409       .  A
C933        C938   1.400       .  A
C933        H943   1.082       .  S
C934        C939   1.498       .  S
C934        C935   1.409       .  A
C935        C936   1.402       .  A
C935        H940   1.082   1_565  S
C936        C937   1.406       .  A
C936        H941   1.083   1_565  S
C937        C938   1.405       .  A
C938        H942   1.083       .  S
C939        C944   1.409       .  A
C939        C948   1.409       .  A
C944        C945   1.400       .  A
C944        H949   1.082       .  S
C945        C946   1.404       .  A
C945        H950   1.083       .  S
C946        C947   1.406       .  A
C947        C948   1.401       .  A
C947        H951   1.083   1_565  S
C948        H952   1.082   1_565  S
C953        C954   1.404       .  A
C953        C958   1.401       .  A
C953        H963   1.083       .  S
C954        C959   1.485       .  S
C954        C955   1.404       .  A
C955        C956   1.402       .  A
C955        H960   1.083   1_565  S
C956        C957   1.408       .  A
C956        H961   1.083   1_565  S
C957        C958   1.407       .  A
C958        H962   1.083       .  S
C959        C964   1.401       .  A
C959        C968   1.402       .  A
C964        C965   1.400       .  A
C964        H969   1.083       .  S
C965        C966   1.416       .  A
C965        H970   1.080       .  S
C966        C967   1.416       .  A
C967        C968   1.402       .  A
C967        H971   1.083       .  S
C968        H972   1.083       .  S
C973        C974   1.405       .  A
C973        C978   1.401       .  A
C973        H983   1.083   1_565  S
C974        C979   1.482       .  S
C974        C975   1.403       .  A
C975        C976   1.398       .  A
C975        H980   1.083       .  S
C976        C977   1.407       .  A
C976        H981   1.083       .  S
C977        C978   1.406       .  A
C978        H982   1.083   1_565  S
C979        C984   1.400       .  A
C979        C988   1.401       .  A
C984        C985   1.400       .  A
C984        H989   1.083       .  S
C985        C986   1.416       .  A
C985        H990   1.081       .  S
C986        C987   1.415       .  A
C987        C988   1.398       .  A
C987        H991   1.081       .  S
C988        H992   1.083       .  S
C993        C994   1.405       .  A
C993        C998   1.390       .  A
C993       H1003   1.081       .  S
C994        C999   1.501       .  S
C994        C995   1.409       .  A
C995        C996   1.406       .  A
C995       H1000   1.081       .  S
C996        C997   1.415       .  A
C996       H1001   1.083       .  S
C997        C998   1.414       .  A
C998       H1002   1.077   1_556  S
C999       C1004   1.409       .  A
C999       C1008   1.406       .  A
C1004      C1005   1.406       .  A
C1004      H1009   1.081       .  S
C1005      C1006   1.413       .  A
C1005      H1010   1.082       .  S
C1006      C1007   1.412       .  A
C1007      C1008   1.390       .  A
C1007      H1011   1.082       .  S
C1008      H1012   1.081       .  S
C1013      C1014   1.405       .  A
C1013      C1018   1.400       .  A
C1013      H1023   1.083       .  S
C1014      C1019   1.489       .  S
C1014      C1015   1.403       .  A
C1015      C1016   1.396       .  A
C1015      H1020   1.083       .  S
C1016      C1017   1.415       .  A
C1016      H1021   1.083       .  S
C1017      C1018   1.414       .  A
C1018      H1022   1.078       .  S
C1019      C1024   1.402       .  A
C1019      C1028   1.402       .  A
C1024      C1025   1.400       .  A
C1024      H1029   1.083       .  S
C1025      C1026   1.420       .  A
C1025      H1030   1.082       .  S
C1026      C1027   1.416       .  A
C1027      C1028   1.395       .  A
C1027      H1031   1.076       .  S
C1028      H1032   1.083       .  S
C1033      C1034   1.399       .  A
C1033      C1038   1.394       .  A
C1033      H1043   1.083       .  S
C1034      C1039   1.481       .  S
C1034      C1035   1.403       .  A
C1035      C1036   1.404       .  A
C1035      H1040   1.083       .  S
C1036      C1037   1.415       .  A
C1036      H1041   1.078       .  S
C1037      C1038   1.416       .  A
C1038      H1042   1.083       .  S
C1039      C1044   1.401       .  A
C1039      C1048   1.401       .  A
C1044      C1045   1.399       .  A
C1044      H1049   1.083       .  S
C1045      C1046   1.415       .  A
C1045      H1050   1.083       .  S
C1046      C1047   1.416       .  A
C1047      C1048   1.399       .  A
C1047      H1051   1.078       .  S
C1048      H1052   1.083       .  S
C1053      C1054   1.396       .  A
C1053      C1058   1.394       .  A
C1053      H1063   1.084       .  S
C1054      C1059   1.473       .  S
C1054      C1055   1.400       .  A
C1055      C1056   1.402       .  A
C1055      H1060   1.083       .  S
C1056      C1057   1.415       .  A
C1056      H1061   1.083       .  S
C1057      C1058   1.417       .  A
C1058      H1062   1.079   1_556  S
C1059      C1064   1.398       .  A
C1059      C1068   1.399       .  A
C1064      C1065   1.394       .  A
C1064      H1069   1.083       .  S
C1065      C1066   1.414       .  A
C1065      H1070   1.083       .  S
C1066      C1067   1.418       .  A
C1067      C1068   1.401       .  A
C1067      H1071   1.079       .  S
C1068      H1072   1.083       .  S
C1073      C1074   1.403       .  A
C1073      C1078   1.395       .  A
C1073      H1083   1.083       .  S
C1074      C1079   1.487       .  S
C1074      C1075   1.403   1_554  A
C1075      C1076   1.399       .  A
C1075      H1080   1.083       .  S
C1076      C1077   1.415   1_556  A
C1076      H1081   1.078       .  S
C1077      C1078   1.413       .  A
C1078      H1082   1.083       .  S
C1079      C1084   1.405       .  A
C1079      C1088   1.407   1_554  A
C1084      C1085   1.397       .  A
C1084      H1089   1.083       .  S
C1085      C1086   1.406       .  A
C1085      H1090   1.083       .  S
C1086      C1087   1.406   1_554  A
C1087      C1088   1.400       .  A
C1087      H1091   1.083       .  S
C1088      H1092   1.083       .  S
C1093      C1094   1.401       .  A
C1093      C1098   1.395       .  A
C1093      H1103   1.083       .  S
C1094      C1099   1.483       .  S
C1094      C1095   1.403   1_554  A
C1095      C1096   1.404       .  A
C1095      H1100   1.083       .  S
C1096      C1097   1.416   1_556  A
C1096      H1101   1.080       .  S
C1097      C1098   1.413       .  A
C1098      H1102   1.083       .  S
C1099      C1104   1.398       .  A
C1099      C1108   1.403       .  A
C1104      C1105   1.395       .  A
C1104      H1109   1.084   1_554  S
C1105      C1106   1.418       .  A
C1105      H1110   1.078   1_554  S
C1106      C1107   1.416       .  A
C1107      C1108   1.404       .  A
C1107      H1111   1.083       .  S
C1108      H1112   1.083       .  S
C1113      C1114   1.406       .  A
C1113      C1118   1.403       .  A
C1113      H1123   1.082       .  S
C1114      C1119   1.500       .  S
C1114      C1115   1.403       .  A
C1115      C1116   1.396   1_545  A
C1115      H1120   1.082       .  S
C1116      C1117   1.416       .  A
C1116      H1121   1.076       .  S
C1117      C1118   1.418   1_565  A
C1118      H1122   1.081   1_545  S
C1119      C1124   1.406       .  A
C1119      C1128   1.407       .  A
C1124      C1125   1.401       .  A
C1124      H1129   1.082       .  S
C1125      C1126   1.414       .  A
C1125      H1130   1.083       .  S
C1126      C1127   1.414       .  A
C1127      C1128   1.399       .  A
C1127      H1131   1.078       .  S
C1128      H1132   1.082       .  S
C1133      C1134   1.404       .  A
C1133      C1138   1.401       .  A
C1133      H1143   1.083       .  S
C1134      C1139   1.482       .  S
C1134      C1135   1.400       .  A
C1135      C1136   1.397       .  A
C1135      H1140   1.083       .  S
C1136      C1137   1.415   1_545  A
C1136      H1141   1.083   1_545  S
C1137      C1138   1.413   1_565  A
C1138      H1142   1.080       .  S
C1139      C1144   1.400       .  A
C1139      C1148   1.403       .  A
C1144      C1145   1.395       .  A
C1144      H1149   1.083       .  S
C1145      C1146   1.414       .  A
C1145      H1150   1.083       .  S
C1146      C1147   1.415       .  A
C1147      C1148   1.402       .  A
C1147      H1151   1.080       .  S
C1148      H1152   1.083       .  S
C1153      C1154   1.404       .  A
C1153      C1158   1.404       .  A
C1153      H1163   1.083       .  S
C1154      C1159   1.485       .  S
C1154      C1155   1.401       .  A
C1155      C1156   1.393       .  A
C1155      H1160   1.083       .  S
C1156      C1157   1.414       .  A
C1156      H1161   1.083       .  S
C1157      C1158   1.415       .  A
C1158      H1162   1.079       .  S
C1159      C1164   1.401       .  A
C1159      C1168   1.404       .  A
C1164      C1165   1.391       .  A
C1164      H1169   1.083       .  S
C1165      C1166   1.414       .  A
C1165      H1170   1.081       .  S
C1166      C1167   1.414       .  A
C1167      C1168   1.404       .  A
C1167      H1171   1.083       .  S
C1168      H1172   1.083       .  S
C1173      C1174   1.398       .  A
C1173      C1178   1.392       .  A
C1173      H1183   1.083       .  S
C1174      C1179   1.481       .  S
C1174      C1175   1.404       .  A
C1175      C1176   1.404       .  A
C1175      H1180   1.083       .  S
C1176      C1177   1.414       .  A
C1176      H1181   1.079       .  S
C1177      C1178   1.416       .  A
C1178      H1182   1.083       .  S
C1179      C1184   1.400       .  A
C1179      C1188   1.402       .  A
C1184      C1185   1.397       .  A
C1184      H1189   1.083       .  S
C1185      C1186   1.415       .  A
C1185      H1190   1.083       .  S
C1186      C1187   1.415       .  A
C1187      C1188   1.399       .  A
C1187      H1191   1.080       .  S
C1188      H1192   1.083       .  S
C1193      C1194   1.406   1_556  A
C1193      C1198   1.398       .  A
C1193      H1203   1.083       .  S
C1194      C1199   1.488       .  S
C1194      C1195   1.406       .  A
C1195      C1196   1.398       .  A
C1195      H1200   1.083       .  S
C1196      C1197   1.405   1_554  A
C1196      H1201   1.083       .  S
C1197      C1198   1.406       .  A
C1198      H1202   1.083       .  S
C1199      C1204   1.404   1_554  A
C1199      C1208   1.404       .  A
C1204      C1205   1.396       .  A
C1204      H1209   1.082       .  S
C1205      C1206   1.413   1_556  A
C1205      H1210   1.083       .  S
C1206      C1207   1.415       .  A
C1207      C1208   1.398       .  A
C1207      H1211   1.079       .  S
C1208      H1212   1.083       .  S
C1213      C1214   1.400   1_556  A
C1213      C1218   1.398       .  A
C1213      H1223   1.083       .  S
C1214      C1219   1.480       .  S
C1214      C1215   1.401       .  A
C1215      C1216   1.403       .  A
C1215      H1220   1.083       .  S
C1216      C1217   1.417       .  A
C1216      H1221   1.079       .  S
C1217      C1218   1.414   1_554  A
C1218      H1222   1.083       .  S
C1219      C1224   1.398       .  A
C1219      C1228   1.401       .  A
C1224      C1225   1.398       .  A
C1224      H1229   1.083       .  S
C1225      C1226   1.417       .  A
C1225      H1230   1.079       .  S
C1226      C1227   1.416       .  A
C1227      C1228   1.403       .  A
C1227      H1231   1.083       .  S
C1228      H1232   1.083       .  S
C1233      C1234   1.408   1_554  A
C1233      C1238   1.397       .  A
C1233      H1243   1.082       .  S
C1234      C1239   1.491       .  S
C1234      C1235   1.408       .  A
C1235      C1236   1.399       .  A
C1235      H1240   1.082       .  S
C1236      C1237   1.405       .  A
C1236      H1241   1.083       .  S
C1237      C1238   1.404   1_556  A
C1238      H1242   1.083       .  S
C1239      C1244   1.407   1_556  A
C1239      C1248   1.408       .  A
C1244      C1245   1.397       .  A
C1244      H1249   1.082       .  S
C1245      C1246   1.405   1_554  A
C1245      H1250   1.083       .  S
C1246      C1247   1.404       .  A
C1247      C1248   1.399       .  A
C1247      H1251   1.083       .  S
C1248      H1252   1.082       .  S
C1253      C1254   1.406   1_556  A
C1253      C1258   1.397       .  A
C1253      H1263   1.081       .  S
C1254      C1259   1.503       .  S
C1254      C1255   1.410       .  A
C1255      C1256   1.401       .  A
C1255      H1260   1.081       .  S
C1256      C1257   1.411       .  A
C1256      H1261   1.083       .  S
C1257      C1258   1.414   1_554  A
C1258      H1262   1.081       .  S
C1259      C1264   1.413   1_554  A
C1259      C1268   1.410       .  A
C1264      C1265   1.400       .  A
C1264      H1269   1.081       .  S
C1265      C1266   1.401   1_556  A
C1265      H1270   1.083       .  S
C1266      C1267   1.403       .  A
C1267      C1268   1.399       .  A
C1267      H1271   1.083       .  S
C1268      H1272   1.081       .  S
C1273      C1274   1.400       .  A
C1273      C1278   1.400       .  A
C1273      H1283   1.083       .  S
C1274      C1279   1.485       .  S
C1274      C1275   1.403       .  A
C1275      C1276   1.398       .  A
C1275      H1280   1.083       .  S
C1276      C1277   1.415       .  A
C1276      H1281   1.079       .  S
C1277      C1278   1.417       .  A
C1278      H1282   1.083       .  S
C1279      C1284   1.400       .  A
C1279      C1288   1.404       .  A
C1284      C1285   1.394       .  A
C1284      H1289   1.083       .  S
C1285      C1286   1.415       .  A
C1285      H1290   1.083       .  S
C1286      C1287   1.415       .  A
C1287      C1288   1.404       .  A
C1287      H1291   1.080       .  S
C1288      H1292   1.083       .  S
C1293      C1294   1.404       .  A
C1293      C1298   1.405       .  A
C1293      H1303   1.083       .  S
C1294      C1299   1.485       .  S
C1294      C1295   1.400       .  A
C1295      C1296   1.392       .  A
C1295      H1300   1.083       .  S
C1296      C1297   1.415       .  A
C1296      H1301   1.083       .  S
C1297      C1298   1.416       .  A
C1298      H1302   1.079       .  S
C1299      C1304   1.403       .  A
C1299      C1308   1.399       .  A
C1304      C1305   1.405       .  A
C1304      H1309   1.083       .  S
C1305      C1306   1.416       .  A
C1305      H1310   1.083       .  S
C1306      C1307   1.417       .  A
C1307      C1308   1.393       .  A
C1307      H1311   1.079   1_655  S
C1308      H1312   1.084       .  S
C1313      C1314   1.400       .  A
C1313      C1318   1.391       .  A
C1313      H1323   1.083       .  S
C1314      C1319   1.488       .  S
C1314      C1315   1.406       .  A
C1315      C1316   1.407       .  A
C1315      H1320   1.083       .  S
C1316      C1317   1.414       .  A
C1316      H1321   1.080       .  S
C1317      C1318   1.414       .  A
C1318      H1322   1.083       .  S
C1319      C1324   1.403       .  A
C1319      C1328   1.402       .  A
C1324      C1325   1.404       .  A
C1324      H1329   1.083       .  S
C1325      C1326   1.416   1_545  A
C1325      H1330   1.083       .  S
C1326      C1327   1.414       .  A
C1327      C1328   1.394   1_565  A
C1327      H1331   1.080       .  S
C1328      H1332   1.083       .  S
C1333      C1334   1.401       .  A
C1333      C1338   1.393       .  A
C1333      H1343   1.083       .  S
C1334      C1339   1.493       .  S
C1334      C1335   1.407       .  A
C1335      C1336   1.409       .  A
C1335      H1340   1.083       .  S
C1336      C1337   1.414       .  A
C1336      H1341   1.083       .  S
C1337      C1338   1.417       .  A
C1338      H1342   1.081       .  S
C1339      C1344   1.405       .  A
C1339      C1348   1.405       .  A
C1344      C1345   1.398       .  A
C1344      H1349   1.083       .  S
C1345      C1346   1.413       .  A
C1345      H1350   1.083   1_545  S
C1346      C1347   1.416       .  A
C1347      C1348   1.405       .  A
C1347      H1351   1.079       .  S
C1348      H1352   1.083       .  S
C1353      C1354   1.406       .  A
C1353      C1358   1.401       .  A
C1353      H1363   1.083       .  S
C1354      C1359   1.495       .  S
C1354      C1355   1.404   1_556  A
C1355      C1356   1.397       .  A
C1355      H1360   1.082       .  S
C1356      C1357   1.414   1_554  A
C1356      H1361   1.083       .  S
C1357      C1358   1.414       .  A
C1358      H1362   1.078       .  S
C1359      C1364   1.407       .  A
C1359      C1368   1.409   1_556  A
C1364      C1365   1.399       .  A
C1364      H1369   1.082       .  S
C1365      C1366   1.407       .  A
C1365      H1370   1.083       .  S
C1366      C1367   1.406   1_556  A
C1367      C1368   1.401       .  A
C1367      H1371   1.083       .  S
C1368      H1372   1.082       .  S
C1373      C1374   1.403       .  A
C1373      C1378   1.405       .  A
C1373      H1383   1.083       .  S
C1374      C1379   1.486       .  S
C1374      C1375   1.399   1_554  A
C1375      C1376   1.399       .  A
C1375      H1380   1.083       .  S
C1376      C1377   1.418       .  A
C1376      H1381   1.079       .  S
C1377      C1378   1.415   1_556  A
C1378      H1382   1.083       .  S
C1379      C1384   1.399   1_554  A
C1379      C1388   1.403       .  A
C1384      C1385   1.400       .  A
C1384      H1389   1.083       .  S
C1385      C1386   1.419       .  A
C1385      H1390   1.078       .  S
C1386      C1387   1.415   1_556  A
C1387      C1388   1.403       .  A
C1387      H1391   1.083       .  S
C1388      H1392   1.083       .  S
C1393      C1394   1.407       .  A
C1393      C1398   1.399       .  A
C1393      H1403   1.082       .  S
C1394      C1399   1.492       .  S
C1394      C1395   1.408   1_556  A
C1395      C1396   1.398       .  A
C1395      H1400   1.082       .  S
C1396      C1397   1.404   1_554  A
C1396      H1401   1.083       .  S
C1397      C1398   1.406       .  A
C1398      H1402   1.083       .  S
C1399      C1404   1.407   1_556  A
C1399      C1408   1.409       .  A
C1404      C1405   1.397       .  A
C1404      H1409   1.082       .  S
C1405      C1406   1.405   1_554  A
C1405      H1410   1.083       .  S
C1406      C1407   1.404       .  A
C1407      C1408   1.401       .  A
C1407      H1411   1.083       .  S
C1408      H1412   1.082       .  S
C1413      C1414   1.411       .  A
C1413      C1418   1.405       .  A
C1413      H1423   1.082       .  S
C1414      C1419   1.503       .  S
C1414      C1415   1.409   1_556  A
C1415      C1416   1.398       .  A
C1415      H1420   1.081       .  S
C1416      C1417   1.405   1_554  A
C1416      H1421   1.083       .  S
C1417      C1418   1.407       .  A
C1418      H1422   1.083       .  S
C1419      C1424   1.409       .  A
C1419      C1428   1.406   1_556  A
C1424      C1425   1.405       .  A
C1424      H1429   1.082       .  S
C1425      C1426   1.414       .  A
C1425      H1430   1.083       .  S
C1426      C1427   1.415   1_556  A
C1427      C1428   1.397       .  A
C1427      H1431   1.078       .  S
C1428      H1432   1.082       .  S
C1433      C1434   1.406       .  A
C1433      C1438   1.407       .  A
C1433      H1443   1.083       .  S
C1434      C1439   1.488       .  S
C1434      C1435   1.400       .  A
C1435      C1436   1.392       .  A
C1435      H1440   1.083       .  S
C1436      C1437   1.414       .  A
C1436      H1441   1.083       .  S
C1437      C1438   1.414       .  A
C1438      H1442   1.079       .  S
C1439      C1444   1.403       .  A
C1439      C1448   1.403       .  A
C1444      C1445   1.404       .  A
C1444      H1449   1.083       .  S
C1445      C1446   1.416       .  A
C1445      H1450   1.083       .  S
C1446      C1447   1.415       .  A
C1447      C1448   1.395       .  A
C1447      H1451   1.079       .  S
C1448      H1452   1.083       .  S
C1453      C1454   1.401       .  A
C1453      C1458   1.391       .  A
C1453      H1463   1.083       .  S
C1454      C1459   1.489       .  S
C1454      C1455   1.406       .  A
C1455      C1456   1.406       .  A
C1455      H1460   1.083       .  S
C1456      C1457   1.415       .  A
C1456      H1461   1.083       .  S
C1457      C1458   1.415       .  A
C1458      H1462   1.080   1_554  S
C1459      C1464   1.403       .  A
C1459      C1468   1.404       .  A
C1464      C1465   1.394       .  A
C1464      H1469   1.083       .  S
C1465      C1466   1.413       .  A
C1465      H1470   1.083       .  S
C1466      C1467   1.415       .  A
C1467      C1468   1.403       .  A
C1467      H1471   1.079       .  S
C1468      H1472   1.083       .  S
C1473      C1474   1.401       .  A
C1473      C1478   1.404       .  A
C1473      H1483   1.083       .  S
C1474      C1479   1.474       .  S
C1474      C1475   1.395       .  A
C1475      C1476   1.393       .  A
C1475      H1480   1.084       .  S
C1476      C1477   1.418       .  A
C1476      H1481   1.079   1_556  S
C1477      C1478   1.415       .  A
C1478      H1482   1.083       .  S
C1479      C1484   1.399       .  A
C1479      C1488   1.399       .  A
C1484      C1485   1.400       .  A
C1484      H1489   1.083       .  S
C1485      C1486   1.417       .  A
C1485      H1490   1.079       .  S
C1486      C1487   1.414       .  A
C1487      C1488   1.397       .  A
C1487      H1491   1.083       .  S
C1488      H1492   1.083       .  S
C1493      C1494   1.405       .  A
C1493      C1498   1.400       .  A
C1493      H1503   1.083       .  S
C1494      C1499   1.485       .  S
C1494      C1495   1.405   1_556  A
C1495      C1496   1.401       .  A
C1495      H1500   1.083       .  S
C1496      C1497   1.406   1_554  A
C1496      H1501   1.083       .  S
C1497      C1498   1.407       .  A
C1498      H1502   1.083       .  S
C1499      C1504   1.402       .  A
C1499      C1508   1.402       .  A
C1504      C1505   1.400       .  A
C1504      H1509   1.083       .  S
C1505      C1506   1.415       .  A
C1505      H1510   1.083   1_556  S
C1506      C1507   1.416       .  A
C1507      C1508   1.399       .  A
C1507      H1511   1.080       .  S
C1508      H1512   1.083       .  S
C1513      C1514   1.400       .  A
C1513      C1518   1.395       .  A
C1513      H1523   1.083       .  S
C1514      C1519   1.478       .  S
C1514      C1515   1.401       .  A
C1515      C1516   1.402       .  A
C1515      H1520   1.083       .  S
C1516      C1517   1.415       .  A
C1516      H1521   1.080       .  S
C1517      C1518   1.414       .  A
C1518      H1522   1.083       .  S
C1519      C1524   1.399       .  A
C1519      C1528   1.400       .  A
C1524      C1525   1.393       .  A
C1524      H1529   1.084       .  S
C1525      C1526   1.415       .  A
C1525      H1530   1.078       .  S
C1526      C1527   1.417       .  A
C1527      C1528   1.402       .  A
C1527      H1531   1.083       .  S
C1528      H1532   1.083       .  S
C1533      C1534   1.404       .  A
C1533      C1538   1.396       .  A
C1533      H1543   1.083       .  S
C1534      C1539   1.494       .  S
C1534      C1535   1.406   1_554  A
C1535      C1536   1.405       .  A
C1535      H1540   1.083       .  S
C1536      C1537   1.415       .  A
C1536      H1541   1.079       .  S
C1537      C1538   1.413   1_556  A
C1538      H1542   1.083       .  S
C1539      C1544   1.403       .  A
C1539      C1548   1.406   1_554  A
C1544      C1545   1.396       .  A
C1544      H1549   1.083       .  S
C1545      C1546   1.415   1_554  A
C1545      H1550   1.080       .  S
C1546      C1547   1.415       .  A
C1547      C1548   1.405       .  A
C1547      H1551   1.083       .  S
C1548      H1552   1.083       .  S
C1553      C1554   1.408   1_554  A
C1553      C1558   1.399       .  A
C1553      H1563   1.082       .  S
C1554      C1559   1.493       .  S
C1554      C1555   1.407       .  A
C1555      C1556   1.399       .  A
C1555      H1560   1.082       .  S
C1556      C1557   1.406       .  A
C1556      H1561   1.083       .  S
C1557      C1558   1.405   1_556  A
C1558      H1562   1.083       .  S
C1559      C1564   1.407   1_556  A
C1559      C1568   1.408       .  A
C1564      C1565   1.399       .  A
C1564      H1569   1.082       .  S
C1565      C1566   1.405   1_554  A
C1565      H1570   1.083       .  S
C1566      C1567   1.405       .  A
C1567      C1568   1.400       .  A
C1567      H1571   1.083       .  S
C1568      H1572   1.082       .  S
C1573      C1574   1.409       .  A
C1573      C1578   1.400       .  A
C1573      H1583   1.082       .  S
C1574      C1579   1.494       .  S
C1574      C1575   1.407   1_556  A
C1575      C1576   1.397       .  A
C1575      H1580   1.082       .  S
C1576      C1577   1.405   1_554  A
C1576      H1581   1.083       .  S
C1577      C1578   1.405       .  A
C1578      H1582   1.083       .  S
C1579      C1584   1.408       .  A
C1579      C1588   1.409   1_556  A
C1584      C1585   1.399       .  A
C1584      H1589   1.082       .  S
C1585      C1586   1.405       .  A
C1585      H1590   1.083       .  S
C1586      C1587   1.404   1_556  A
C1587      C1588   1.399       .  A
C1587      H1591   1.083       .  S
C1588      H1592   1.082       .  S
C1593      C1594   1.401       .  A
C1593      C1598   1.398       .  A
C1593      H1603   1.083       .  S
C1594      C1599   1.482       .  S
C1594      C1595   1.401       .  A
C1595      C1596   1.401   1_556  A
C1595      H1600   1.083   1_556  S
C1596      C1597   1.416   1_554  A
C1596      H1601   1.083       .  S
C1597      C1598   1.416       .  A
C1598      H1602   1.079       .  S
C1599      C1604   1.405   1_556  A
C1599      C1608   1.403       .  A
C1604      C1605   1.402       .  A
C1604      H1609   1.083       .  S
C1605      C1606   1.407   1_554  A
C1605      H1610   1.083       .  S
C1606      C1607   1.407       .  A
C1607      C1608   1.398       .  A
C1607      H1611   1.083       .  S
C1608      H1612   1.083       .  S
C1613      C1614   1.406   1_554  A
C1613      C1618   1.399       .  A
C1613      H1623   1.083       .  S
C1614      C1619   1.493       .  S
C1614      C1615   1.408       .  A
C1615      C1616   1.401       .  A
C1615      H1620   1.083       .  S
C1616      C1617   1.406       .  A
C1616      H1621   1.083       .  S
C1617      C1618   1.407   1_556  A
C1618      H1622   1.083       .  S
C1619      C1624   1.406   1_556  A
C1619      C1628   1.404       .  A
C1624      C1625   1.401       .  A
C1624      H1629   1.083       .  S
C1625      C1626   1.414   1_554  A
C1625      H1630   1.079       .  S
C1626      C1627   1.414       .  A
C1627      C1628   1.397       .  A
C1627      H1631   1.083       .  S
C1628      H1632   1.082       .  S
