geometry optimzed in LAMMPS
_audit_creation_date              2020-11-30 
_audit_creation_method            'lammps2cif' 
_symmetry_space_group_name_H-M    'P1' 
_symmetry_Int_Tables_number       1 
_symmetry_cell_setting            triclinic 
loop_ 
_symmetry_equiv_pos_as_xyz 
  x,y,z 
_cell_length_a                    36.05568151 
_cell_length_b                    36.185678330941045 
_cell_length_c                    43.05075313125117 
_cell_angle_alpha                 89.8555010283119 
_cell_angle_beta                  89.8495505430796 
_cell_angle_gamma                 120.28543721432254 
loop_ 
_atom_site_label 
_atom_site_type_symbol 
_atom_site_fract_x 
_atom_site_fract_y 
_atom_site_fract_z 
_atom_site_charge 
O1          O  0.62670539  0.85914309  0.07909055    -0.81600
C2          C  0.65893415  0.77124675  0.17530123     0.97700
O3          O  0.68602276  0.80469184  0.16112714    -0.70800
O4          O  0.68221035  0.79264477  0.10034371    -0.74300
Al5        Al  0.68144153  0.83494132  0.12602768     1.49000
C6          C  0.66564084  0.78291273  0.07364714     0.93000
O7          O  0.56292245  0.73979120  0.09532182    -0.80600
O8          O  0.56578722  0.82205705  0.15451744    -0.74100
Al9        Al  0.59676653  0.80004878  0.08944976     1.90100
O10         O  0.54802198  0.73971548  0.14478109    -0.73200
O11         O  0.63607117  0.83888981  0.18518568    -0.73000
O12         O  0.61937472  0.75724711  0.17221727    -0.78700
O13         O  0.68640282  0.88001988  0.15174046    -0.76900
O14         O  0.62416309  0.80860501  0.12553905    -1.13000
O15         O  0.69093465  0.87158357  0.09115271    -0.72200
C16         C  0.66694459  0.88178584  0.07682316     0.98500
C17         C  0.54084400  0.72072138  0.11904432     0.94900
Al18       Al  0.59483326  0.79103475  0.16110290     1.55600
O19         O  0.63586377  0.78981095  0.06596104    -0.76900
C20         C  0.66880304  0.87434931  0.17808844     0.99000
C21         C  0.54521913  0.82085020  0.13052246     0.93900
O22         O  0.55213669  0.80849053  0.10493892    -0.82200
O23         O  0.14001213  0.76576677  0.07785603    -0.81600
C24         C  0.21951626  0.88110970  0.17704806     0.97700
O25         O  0.18575239  0.87346601  0.16303474    -0.70800
O26         O  0.20389857  0.88693920  0.10315772    -0.74300
Al27       Al  0.15948828  0.84113149  0.12637681     1.49000
C28         C  0.21642287  0.88287807  0.07660105     0.93000
O29         O  0.25831338  0.82277317  0.09770831    -0.80600
O30         O  0.17240542  0.73917718  0.15377498    -0.74100
Al31       Al  0.19846670  0.79557672  0.08995483     1.90100
O32         O  0.25521944  0.80537127  0.14690066    -0.73200
O33         O  0.15145740  0.78874024  0.18465160    -0.73000
O34         O  0.23443152  0.85652142  0.17421517    -0.78700
O35         O  0.11254900  0.79769944  0.14945502    -0.76900
O36         O  0.18685156  0.81164998  0.12605575    -1.13000
O37         O  0.12655678  0.81655957  0.08983396    -0.72200
C38         C  0.11749942  0.78310002  0.07506140     0.98500
C39         C  0.27598774  0.81897745  0.12176540     0.94900
Al40       Al  0.20211785  0.79857257  0.16187576     1.55600
O41         O  0.21027523  0.84688774  0.06758050    -0.76900
C42         C  0.11577506  0.78381341  0.17565938     0.99000
C43         C  0.17513002  0.72106808  0.12965029     0.93900
O44         O  0.18922226  0.74157213  0.10449495    -0.82200
O45         O  0.13233821  0.36829901  0.17254630    -0.81600
C46         C  0.21368816  0.33822291  0.07133900     0.97700
O47         O  0.18040357  0.31082589  0.08556602    -0.70800
O48         O  0.19789582  0.31343448  0.14533417    -0.74300
Al49       Al  0.15313901  0.31458183  0.12265997     1.49000
C50         C  0.20959169  0.32908084  0.17215673     0.92400
O51         O  0.25099472  0.43121214  0.15194235    -0.80600
O52         O  0.16318605  0.42903533  0.09797390    -0.74100
Al53       Al  0.19102364  0.39804899  0.16023139     1.90100
O54         O  0.24669527  0.44790690  0.10353227    -0.73200
O55         O  0.14393184  0.36019553  0.06556682    -0.73000
O56         O  0.22747877  0.37750488  0.07465935    -0.78700
O57         O  0.10577688  0.31051228  0.10019322    -0.76900
O58         O  0.17955194  0.37145065  0.12377413    -1.13000
O59         O  0.11957623  0.30450762  0.15938322    -0.72200
C60         C  0.10973355  0.32813359  0.17448431     0.98500
C61         C  0.26807381  0.45404612  0.12811871     0.94900
Al62       Al  0.19408908  0.40113424  0.08840542     1.55600
O63         O  0.20264470  0.35812170  0.18173472    -0.76900
C64         C  0.10852909  0.32866283  0.07451496     0.99000
C65         C  0.16751651  0.45028747  0.12216438     0.93900
O66         O  0.18215195  0.44349484  0.14678679    -0.82200
O67         O  0.85771443  0.61707768  0.42422534    -0.81600
C68         C  0.78081392  0.66418579  0.32894205     0.97700
O69         O  0.81429983  0.68838201  0.34411017    -0.70800
O70         O  0.79839152  0.68077010  0.40464471    -0.74300
Al71       Al  0.84077888  0.67886717  0.37945823     1.49000
C72         C  0.78681687  0.66281718  0.43092121     0.93000
O73         O  0.73935602  0.56240489  0.40622581    -0.80600
O74         O  0.82237772  0.56386549  0.34743479    -0.74100
Al75       Al  0.79929741  0.59188042  0.41318069     1.90100
O76         O  0.74063696  0.54976568  0.35647705    -0.73200
O77         O  0.84503404  0.63676540  0.31877422    -0.73000
O78         O  0.76364435  0.62416074  0.33105824    -0.78700
O79         O  0.88586165  0.68202801  0.35469536    -0.76900
O80         O  0.81127129  0.62199369  0.37802396    -1.13000
O81         O  0.87474723  0.68328261  0.41490631    -0.72200
C82         C  0.88237185  0.65655593  0.42795324     0.98500
C83         C  0.72066461  0.54212041  0.38202017     0.94900
Al84       Al  0.79426926  0.59578661  0.34151870     1.55600
O85         O  0.79144959  0.63145170  0.43796389    -0.76900
C86         C  0.88138926  0.66631112  0.32790014     0.99000
C87         C  0.81901824  0.54140372  0.37085179     0.93900
O88         O  0.80488582  0.54649127  0.39632003    -0.82200
O89         O  0.84964957  0.23157487  0.32658842    -0.81600
C90         C  0.77229278  0.11305634  0.42508106     0.97700
O91         O  0.80615858  0.12123087  0.41061505    -0.70800
O92         O  0.79166623  0.10923605  0.34978781    -0.74300
Al93       Al  0.83339028  0.15558411  0.37423530     1.49000
C94         C  0.78090966  0.11433105  0.32288413     0.93000
O95         O  0.73119047  0.16701933  0.34541165    -0.80600
O96         O  0.81502503  0.25363955  0.40155341    -0.74100
Al97       Al  0.79127334  0.19827499  0.33798512     1.90100
O98         O  0.73302482  0.18557876  0.39413898    -0.73200
O99         O  0.83706258  0.20545662  0.43306205    -0.73000
O100        O  0.75596760  0.13633372  0.42173228    -0.78700
O101        O  0.87816302  0.19932567  0.39818007    -0.76900
O102        O  0.80359801  0.18263303  0.37394420    -1.13000
O103        O  0.86765584  0.18369117  0.33810376    -0.72200
C104        C  0.87455743  0.21698060  0.32360190     0.98500
C105        C  0.71260327  0.17036786  0.36916888     0.94900
Al106      Al  0.78663392  0.19423908  0.40961918     1.55600
O107        O  0.78430693  0.14962462  0.31500116    -0.76900
C108        C  0.87353660  0.21213818  0.42436021     0.99000
C109        C  0.81095972  0.27127945  0.37760874     0.93900
O110        O  0.79618592  0.25042751  0.35280744    -0.82200
O111        O  0.36873955  0.14207848  0.32467222    -0.81600
C112        C  0.32840739  0.21415631  0.42694895     0.97700
O113        O  0.30349592  0.18078631  0.41211518    -0.70800
O114        O  0.30776658  0.20105800  0.35260867    -0.74300
Al115      Al  0.31089333  0.15703947  0.37470838     1.49000
C116        C  0.32479056  0.21506563  0.32626543     0.93000
O117        O  0.42806874  0.25923075  0.34718120    -0.80600
O118        O  0.42747243  0.17360665  0.40142572    -0.74100
Al119      Al  0.39631979  0.19979146  0.33830991     1.90100
O120        O  0.44189837  0.25507200  0.39620427    -0.73200
O121        O  0.35602409  0.14995914  0.43237875    -0.73000
O122        O  0.36846241  0.23158838  0.42363490    -0.78700
O123        O  0.30925066  0.11040428  0.39671231    -0.76900
O124        O  0.36808079  0.18626145  0.37440245    -1.13000
O125        O  0.30358022  0.12598458  0.33742410    -0.72200
C126        C  0.32873916  0.11872679  0.32181695     0.98500
C127        C  0.44920789  0.27637417  0.37144241     0.94900
Al128      Al  0.39615678  0.20135767  0.41034576     1.55600
O129        O  0.35592536  0.21097160  0.31695417    -0.76900
C130        C  0.32629008  0.11397468  0.42298778     0.99000
C131        C  0.44843294  0.17686530  0.37709602     0.93900
O132        O  0.44192110  0.19125082  0.35220214    -0.82200
C133        C  0.60003994  0.15193119  0.35322604     0.16100
C134        C  0.56481282  0.15260610  0.34006519    -0.32900
C135        C  0.53587260  0.15557141  0.36036168     0.20500
C136        C  0.54075676  0.15593018  0.39232875     0.02700
C137        C  0.57555376  0.15463630  0.40545563    -0.22700
C138        C  0.60541101  0.15352261  0.38517639     0.11900
S139        S  0.64165232  0.15393144  0.33266502    -0.06300
C140        C  0.66726961  0.15888470  0.36746657    -0.09800
C141        C  0.64379062  0.15732192  0.39347323    -0.26400
S142        S  0.50378835  0.16196334  0.41302340    -0.03600
C143        C  0.48230417  0.16560635  0.37828640    -0.17000
C144        C  0.50229748  0.16119640  0.35212553    -0.15000
H145        H  0.56132345  0.15300513  0.31511927     0.20300
H146        H  0.58030488  0.15659490  0.43034768     0.16400
H147        H  0.65523941  0.16118762  0.41713808     0.18900
H148        H  0.49370344  0.16352369  0.32841606     0.12200
C149        C  0.60871091  0.44614631  0.39757374     0.16100
C150        C  0.57309555  0.40984945  0.41021409    -0.32900
C151        C  0.54187434  0.38120243  0.38954829     0.20500
C152        C  0.54526473  0.38881438  0.35779105     0.02700
C153        C  0.58068807  0.42532797  0.34518046    -0.22700
C154        C  0.61249673  0.45337954  0.36576249     0.11900
S155        S  0.65182671  0.48279843  0.41842460    -0.06300
C156        C  0.67567983  0.50743784  0.38382237    -0.09800
C157        C  0.65089446  0.48853752  0.35773549    -0.26400
S158        S  0.50526300  0.34887259  0.33652427    -0.03600
C159        C  0.48442283  0.32112900  0.37072119    -0.17000
C160        C  0.50694144  0.34247448  0.39711025    -0.15000
H161        H  0.57062004  0.40340377  0.43492994     0.20300
H162        H  0.58410992  0.43078651  0.32033736     0.16400
H163        H  0.66112093  0.49902267  0.33407512     0.18900
H164        H  0.49922873  0.32951957  0.42046255     0.12200
C165        C  0.83516587  0.44685871  0.35398216     0.16100
C166        C  0.83348833  0.41070803  0.34077484    -0.32900
C167        C  0.83146053  0.37935208  0.36106731     0.20500
C168        C  0.83285936  0.38452043  0.39304316     0.02700
C169        C  0.83530401  0.42097585  0.40622591    -0.22700
C170        C  0.83555862  0.45145812  0.38597632     0.11900
S171        S  0.83218456  0.48580338  0.33354150    -0.06300
C172        C  0.82965669  0.50736561  0.36851835    -0.09800
C173        C  0.83265238  0.48626267  0.39444058    -0.26400
S174        S  0.82751925  0.34184191  0.41373200    -0.03600
C175        C  0.82196195  0.31619247  0.37897106    -0.17000
C176        C  0.82520316  0.34010107  0.35283495    -0.15000
H177        H  0.83162448  0.40619893  0.31586234     0.20300
H178        H  0.83482392  0.42439467  0.43117652     0.16400
H179        H  0.83043918  0.49460031  0.41824629     0.18900
H180        H  0.82170485  0.32880941  0.32916006     0.12200
C181        C  0.98051342  0.27101847  0.46849974     0.16100
C182        C  0.02380503  0.29266468  0.97736341    -0.32900
C183        C  0.03300294  0.29715553  0.00923829     0.20500
C184        C  0.00054816  0.28071870  0.03140281     0.02700
C185        C  0.95716530  0.26009074  0.52252799    -0.22700
C186        C  0.94795551  0.25565606  0.49057223     0.11900
S187        S  0.96289252  0.25959365  0.43104044    -0.06300
C188        C  0.91099361  0.23432031  0.44507537    -0.09800
C189        C  0.90789455  0.23511429  0.47721582    -0.26400
S190        S  0.01861221  0.28684478  0.06884597    -0.03600
C191        C  0.07039699  0.31249454  0.05442845    -0.17000
C192        C  0.07309853  0.31597987  0.02231971    -0.15000
H193        H  0.04924087  0.30464668  0.96014272     0.20300
H194        H  0.93171496  0.24721211  0.53974962     0.16400
H195        H  0.87796899  0.22014971  0.49013157     0.18900
H196        H  0.10285715  0.33047008  0.00920401     0.12200
C197        C  0.96430911  0.28231122  0.26520821     0.16100
C198        C  0.99445645  0.31346453  0.24503672    -0.32900
C199        C  0.02076513  0.30279479  0.22786572     0.20500
C200        C  0.01658036  0.26259959  0.23016725     0.02700
C201        C  0.98662754  0.23156537  0.25042467    -0.22700
C202        C  0.96101499  0.24256103  0.26807365     0.11900
S203        S  0.92920350  0.28878403  0.28792358    -0.06300
C204        C  0.91067628  0.23776326  0.30185791    -0.09800
C205        C  0.93053026  0.21696363  0.28931954    -0.26400
S206        S  0.05129575  0.25574680  0.20743326    -0.03600
C207        C  0.07255390  0.30798781  0.19536559    -0.17000
C208        C  0.05311277  0.32918024  0.20795204    -0.15000
H209        H  0.99752178  0.34472019  0.24302299     0.20300
H210        H  0.98371194  0.20037842  0.25256013     0.16400
H211        H  0.92236665  0.18450733  0.29490965     0.18900
H212        H  0.06244224  0.36212675  0.20305693     0.12200
C213        C  0.26590268  0.27985560  0.21767625     0.16100
C214        C  0.28829070  0.25953696  0.22741924    -0.32900
C215        C  0.29152894  0.25472620  0.25949737     0.20500
C216        C  0.27284724  0.26894609  0.28098399     0.02700
C217        C  0.25114158  0.28998294  0.27125604    -0.22700
C218        C  0.24837932  0.29528512  0.23917596     0.11900
S219        S  0.25693609  0.28738855  0.17979392    -0.06300
C220        C  0.23012792  0.31245460  0.19306990    -0.09800
C221        C  0.22829241  0.31450927  0.22517750    -0.26400
S222        S  0.27854315  0.25796966  0.31878891    -0.03600
C223        C  0.30736794  0.23499510  0.30550366    -0.17000
C224        C  0.31178115  0.23566259  0.27345643    -0.15000
H225        H  0.30227140  0.24768023  0.21073282     0.20300
H226        H  0.23673488  0.30139979  0.28793335     0.16400
H227        H  0.21218756  0.32844247  0.23760734     0.18900
H228        H  0.32821808  0.22209621  0.26100171     0.12200
C229        C  0.26522246  0.24082489  0.48477373     0.16100
C230        C  0.23418140  0.23942509  0.00495621    -0.32900
C231        C  0.24356276  0.27726741  0.02003733     0.20500
C232        C  0.28201047  0.31512287  0.01515358     0.02700
C233        C  0.31352628  0.31639247  0.49524623    -0.22700
C234        C  0.30424430  0.27824951  0.48028335     0.11900
S235        S  0.25892662  0.19835235  0.46380966    -0.06300
C236        C  0.30970473  0.23090437  0.44909751    -0.09800
C237        C  0.33033528  0.27260516  0.45994747    -0.26400
S238        S  0.28604021  0.35788450  0.03491783    -0.03600
C239        C  0.23572009  0.32393580  0.05012901    -0.17000
C240        C  0.21709510  0.28203042  0.04024561    -0.15000
H241        H  0.20385128  0.21013732  0.00857286     0.20300
H242        H  0.34370421  0.34576106  0.49143777     0.16400
H243        H  0.36222958  0.29739153  0.45301548     0.18900
H244        H  0.18550573  0.25650521  0.04710246     0.12200
C245        C  0.28024205  0.00751282  0.46773547     0.16100
C246        C  0.26072561  0.96457921  0.47734387    -0.32900
C247        C  0.25658207  0.95611585  0.00944115     0.20500
C248        C  0.27095219  0.98888599  0.03098546     0.02700
C249        C  0.29131324  0.03178085  0.02139280    -0.22700
C250        C  0.29569462  0.04024242  0.48936450     0.11900
S251        S  0.28637390  0.02461928  0.42995376    -0.06300
C252        C  0.31069859  0.07638066  0.44353482    -0.09800
C253        C  0.31371939  0.07979963  0.47560867    -0.26400
S254        S  0.26041438  0.97195774  0.06875595    -0.03600
C255        C  0.23708817  0.92013199  0.05551454    -0.17000
C256        C  0.23759027  0.91654800  0.02342555    -0.15000
H257        H  0.24869005  0.93889661  0.46057149     0.20300
H258        H  0.30262948  0.05742547  0.03815906     0.16400
H259        H  0.32742021  0.10966698  0.48821885     0.18900
H260        H  0.22364282  0.88654008  0.01098368     0.12200
C261        C  0.26663773  0.02908834  0.26371547     0.16100
C262        C  0.23570433  0.99853934  0.24400249    -0.32900
C263        C  0.24663915  0.97193242  0.22778455     0.20500
C264        C  0.28653543  0.97538279  0.23104692     0.02700
C265        C  0.31789958  0.00666467  0.25027858    -0.22700
C266        C  0.30698925  0.03342814  0.26648873     0.11900
S267        S  0.25866167  0.06291966  0.28634275    -0.06300
C268        C  0.31046170  0.08370055  0.29938374    -0.09800
C269        C  0.33262542  0.06525236  0.28676241    -0.26400
S270        S  0.29239812  0.93820895  0.21069320    -0.03600
C271        C  0.24078889  0.91838072  0.19743545    -0.17000
C272        C  0.22043273  0.93961121  0.20823435    -0.15000
H273        H  0.20424779  0.99520724  0.24177831     0.20300
H274        H  0.34911970  0.00956553  0.25286527     0.16400
H275        H  0.36533555  0.07419550  0.29245469     0.18900
H276        H  0.18779760  0.93113408  0.20268931     0.12200
C277        C  0.98832556  0.71619223  0.28308285     0.16100
C278        C  0.03158867  0.73675047  0.27386196    -0.32900
C279        C  0.04067008  0.74178256  0.24188881     0.20500
C280        C  0.00814816  0.72739733  0.22004364     0.02700
C281        C  0.96482577  0.70610499  0.22925705    -0.22700
C282        C  0.95573290  0.70069171  0.26124014     0.11900
S283        S  0.97074952  0.70844805  0.32073230    -0.06300
C284        C  0.91888136  0.68321951  0.30696402    -0.09800
C285        C  0.91573162  0.68125369  0.27482646    -0.26400
S286        S  0.02601459  0.73888197  0.18246416    -0.03600
C287        C  0.07784430  0.76267981  0.19628292    -0.17000
C288        C  0.08070904  0.76152679  0.22837271    -0.15000
H289        H  0.05706930  0.74871315  0.29086839     0.20300
H290        H  0.93935889  0.69468029  0.21226586     0.16400
H291        H  0.88582096  0.66718948  0.26211999     0.18900
H292        H  0.11054843  0.77544806  0.24116140     0.12200
C293        C  0.02927150  0.75591087  0.01599622     0.16100
C294        C  0.00120730  0.75717358  0.49433551    -0.32900
C295        C  0.97299389  0.71904506  0.47928692     0.20500
C296        C  0.97233350  0.68110543  0.48560712     0.02700
C297        C  0.00092902  0.67995074  0.00702609    -0.22700
C298        C  0.02952070  0.71831193  0.02192214     0.11900
S299        S  0.06538539  0.79881329  0.03685805    -0.06300
C300        C  0.08176715  0.76609277  0.05326945    -0.09800
C301        C  0.06007420  0.72408075  0.04323404    -0.26400
S302        S  0.93394224  0.63793573  0.46583334    -0.03600
C303        C  0.91916658  0.67170281  0.44880057    -0.17000
C304        C  0.94288454  0.71393767  0.45798469    -0.15000
H305        H  0.00117362  0.78655645  0.48955949     0.20300
H306        H  0.00073986  0.65050272  0.01197824     0.16400
H307        H  0.06630564  0.69928561  0.05111914     0.18900
H308        H  0.93755562  0.73935405  0.45015482     0.12200
C309        C  0.15332395  0.54647879  0.10679000     0.16100
C310        C  0.15355050  0.58199820  0.09354792    -0.32900
C311        C  0.15583903  0.61339619  0.11375371     0.20500
C312        C  0.15655780  0.60903829  0.14573394     0.02700
C313        C  0.15608705  0.57340866  0.15897336    -0.22700
C314        C  0.15506626  0.54263127  0.13874494     0.11900
S315        S  0.15434181  0.50679606  0.08620044    -0.06300
C316        C  0.15830467  0.48541681  0.12096876    -0.09800
C317        C  0.15799724  0.50763693  0.14704253    -0.26400
S318        S  0.16149306  0.65155950  0.16621731    -0.03600
C319        C  0.16407197  0.67610892  0.13132223    -0.17000
C320        C  0.16014370  0.65189618  0.10531758    -0.15000
H321        H  0.15355194  0.58575386  0.06860105     0.20300
H322        H  0.15801292  0.57058304  0.18386613     0.16400
H323        H  0.16145960  0.49958887  0.17068165     0.18900
H324        H  0.16207437  0.66259259  0.08154752     0.12200
C325        C  0.75061946  0.03862668  0.25312971     0.16100
C326        C  0.74343393  0.02041723  0.22341932    -0.32900
C327        C  0.72211165  0.97563132  0.22145511     0.20500
C328        C  0.70868751  0.95020368  0.24795033     0.02700
C329        C  0.71712186  0.96846654  0.27767218    -0.22700
C330        C  0.73830172  0.01323974  0.27964192     0.11900
S331        S  0.77319642  0.09202141  0.26030626    -0.06300
C332        C  0.76658212  0.08022319  0.29946655    -0.09800
C333        C  0.74801436  0.03700926  0.30639922    -0.26400
S334        S  0.68041161  0.89659117  0.24072283    -0.03600
C335        C  0.68710841  0.90839533  0.20159850    -0.17000
C336        C  0.71045552  0.95176552  0.19469309    -0.15000
H337        H  0.75307531  0.04024899  0.20274084     0.20300
H338        H  0.70665358  0.94860226  0.29833260     0.16400
H339        H  0.74119105  0.02369931  0.32965985     0.18900
H340        H  0.71733663  0.96505791  0.17142332     0.12200
C341        C  0.73133260  0.97576066  0.02144057     0.16100
C342        C  0.76233476  0.00644447  0.50149265    -0.32900
C343        C  0.74984797  0.02973887  0.48255204     0.20500
C344        C  0.70862819  0.02352124  0.48389826     0.02700
C345        C  0.67756479  0.99273122  0.00380543    -0.22700
C346        C  0.68980546  0.96877668  0.02229111     0.11900
S347        S  0.73978808  0.94321516  0.04537735    -0.06300
C348        C  0.68657045  0.91926467  0.05618736    -0.09800
C349        C  0.66383443  0.93619454  0.04216813    -0.26400
S350        S  0.70027409  0.05596015  0.45969177    -0.03600
C351        C  0.75256404  0.07734694  0.44716838    -0.17000
C352        C  0.77514792  0.06037440  0.46127351    -0.15000
H353        H  0.79460272  0.01155557  0.50050011     0.20300
H354        H  0.64520655  0.98739550  0.00462028     0.16400
H355        H  0.63003002  0.92477820  0.04589300     0.18900
H356        H  0.80853661  0.07063303  0.45673287     0.12200
C357        C  0.74849300  0.70077347  0.50023929     0.16100
C358        C  0.73962030  0.71071317  0.02975607    -0.32900
C359        C  0.71694597  0.73271602  0.03126106     0.20500
C360        C  0.70332831  0.74389871  0.00457758     0.02700
C361        C  0.71298179  0.73475886  0.47506799    -0.22700
C362        C  0.73604016  0.71317261  0.47355795     0.11900
S363        S  0.77447173  0.67316263  0.49347568    -0.06300
C364        C  0.76933369  0.67928362  0.45431752    -0.09800
C365        C  0.74844925  0.70140501  0.44705287    -0.26400
S366        S  0.67475797  0.76887738  0.01128180    -0.03600
C367        C  0.68200855  0.76505374  0.05043426    -0.17000
C368        C  0.70522012  0.74526703  0.05773728    -0.15000
H369        H  0.74970047  0.70147906  0.05060312     0.20300
H370        H  0.70276463  0.74385384  0.45422316     0.16400
H371        H  0.74223923  0.70799761  0.42369362     0.18900
H372        H  0.71275462  0.74006809  0.08109338     0.12200
C373        C  0.68185273  0.70628107  0.23501179     0.16100
C374        C  0.67983874  0.67655460  0.25698354    -0.32900
C375        C  0.71744596  0.68708681  0.27349117     0.20500
C376        C  0.75512987  0.72566855  0.26852929     0.02700
C377        C  0.75729662  0.75498200  0.24628882    -0.22700
C378        C  0.71992711  0.74430424  0.22962866     0.11900
S379        S  0.63953438  0.70065093  0.21347563    -0.06300
C380        C  0.67374488  0.74980802  0.19686199    -0.09800
C381        C  0.71560818  0.76914941  0.20754670    -0.26400
S382        S  0.79705511  0.73311805  0.29112135    -0.03600
C383        C  0.76397248  0.68330879  0.30703007    -0.17000
C384        C  0.72243166  0.66233355  0.29546831    -0.15000
H385        H  0.65026451  0.64670579  0.26114085     0.20300
H386        H  0.78680772  0.78494533  0.24225740     0.16400
H387        H  0.74120060  0.80044003  0.20032396     0.18900
H388        H  0.69747696  0.63066443  0.30255274     0.12200
C389        C  0.38883471  0.83690544  0.10668318     0.16100
C390        C  0.42538179  0.83853820  0.09381138    -0.32900
C391        C  0.45514549  0.83773512  0.11432870     0.20500
C392        C  0.44951750  0.83661792  0.14626310     0.02700
C393        C  0.41325637  0.83557024  0.15913805    -0.22700
C394        C  0.38286985  0.83511135  0.13860612     0.11900
S395        S  0.34706413  0.83360661  0.08574774    -0.06300
C396        C  0.32084557  0.82872799  0.12036699    -0.09800
C397        C  0.34393951  0.83047475  0.14658750    -0.26400
S398        S  0.48775540  0.83278344  0.16708516    -0.03600
C399        C  0.51088302  0.83145698  0.13237452    -0.17000
C400        C  0.49040837  0.83496983  0.10623462    -0.15000
H401        H  0.42956740  0.83866196  0.06889220     0.20300
H402        H  0.40808046  0.83342006  0.18401708     0.16400
H403        H  0.33222344  0.82702696  0.17021418     0.18900
H404        H  0.49961426  0.83343372  0.08251776     0.12200
C405        C  0.44131432  0.61164737  0.10264895     0.16100
C406        C  0.40386856  0.57770230  0.08995008    -0.32900
C407        C  0.37427090  0.54645174  0.11045431     0.20500
C408        C  0.38203021  0.54815971  0.14209529     0.02700
C409        C  0.41966048  0.58191524  0.15476712    -0.22700
C410        C  0.44869551  0.61381345  0.13436757     0.11900
S411        S  0.47938404  0.65467652  0.08207740    -0.06300
C412        C  0.50478914  0.67644943  0.11669673    -0.09800
C413        C  0.48509783  0.65092071  0.14255227    -0.26400
S414        S  0.34119226  0.50808796  0.16315245    -0.03600
C415        C  0.31295808  0.48942753  0.12903816    -0.17000
C416        C  0.33471752  0.51283342  0.10283714    -0.15000
H417        H  0.39737868  0.57649601  0.06532925     0.20300
H418        H  0.42532919  0.58403094  0.17954591     0.16400
H419        H  0.49592346  0.65984469  0.16623021     0.18900
H420        H  0.32174804  0.50633190  0.07954409     0.12200
O421        O  0.62670517  0.85914296  0.57909057    -0.81600
C422        C  0.65893400  0.77124665  0.67530125     0.97700
O423        O  0.68602259  0.80469173  0.66112714    -0.70800
O424        O  0.68221011  0.79264463  0.60034372    -0.74300
Al425      Al  0.68144134  0.83494120  0.62602769     1.49000
C426        C  0.66564059  0.78291258  0.57364716     0.93000
O427        O  0.56292226  0.73979108  0.59532189    -0.80600
O428        O  0.56578710  0.82205697  0.65451751    -0.74100
Al429      Al  0.59676632  0.80004866  0.58944981     1.90100
O430        O  0.54802181  0.73971538  0.64478115    -0.73200
O431        O  0.63607103  0.83888967  0.68518572    -0.73000
O432        O  0.61937457  0.75724699  0.67221730    -0.78700
O433        O  0.68640265  0.88001976  0.65174049    -0.76900
O434        O  0.62416290  0.80860490  0.62553909    -1.13000
O435        O  0.69093443  0.87158344  0.59115271    -0.72200
C436        C  0.66694437  0.88178570  0.57682315     0.98500
C437        C  0.54084384  0.72072126  0.61904439     0.94900
Al438      Al  0.59483310  0.79103464  0.66110295     1.55600
O439        O  0.63586352  0.78981081  0.56596106    -0.76900
C440        C  0.66880289  0.87434917  0.67808848     0.99000
C441        C  0.54521902  0.82085015  0.63052254     0.93900
O442        O  0.55213651  0.80849043  0.60493900    -0.82200
O443        O  0.14001222  0.76576696  0.57785585    -0.81600
C444        C  0.21951631  0.88110966  0.67704802     0.97700
O445        O  0.18575251  0.87346608  0.66303464    -0.70800
O446        O  0.20389869  0.88693934  0.60315763    -0.74300
Al447      Al  0.15948837  0.84113162  0.62637670     1.49000
C448        C  0.21642299  0.88287824  0.57660096     0.93000
O449        O  0.25831343  0.82277328  0.59770820    -0.80600
O450        O  0.17240533  0.73917715  0.65377474    -0.74100
Al451      Al  0.19846676  0.79557685  0.58995468     1.90100
O452        O  0.25521938  0.80537122  0.64690053    -0.73200
O453        O  0.15145736  0.78874019  0.68465143    -0.73000
O454        O  0.23443150  0.85652132  0.67421512    -0.78700
O455        O  0.11254905  0.79769959  0.64945490    -0.76900
O456        O  0.18685159  0.81165006  0.62605562    -1.13000
O457        O  0.12655685  0.81655974  0.58983384    -0.72200
C458        C  0.11749950  0.78310021  0.57506126     0.98500
C459        C  0.27598775  0.81897750  0.62176530     0.94900
Al460      Al  0.20211781  0.79857252  0.66187561     1.55600
O461        O  0.21027534  0.84688791  0.56758038    -0.76900
C462        C  0.11577506  0.78381346  0.67565923     0.99000
C463        C  0.17512995  0.72106809  0.62965003     0.93900
O464        O  0.18922227  0.74157220  0.60449472    -0.82200
O465        O  0.13233811  0.36829913  0.67254627    -0.81600
C466        C  0.21368819  0.33822275  0.57133916     0.97700
O467        O  0.18040358  0.31082577  0.58556619    -0.70800
O468        O  0.19789578  0.31343455  0.64533438    -0.74300
Al469      Al  0.15313899  0.31458183  0.62266010     1.49000
C470        C  0.20959161  0.32908096  0.67215694     0.92400
O471        O  0.25099463  0.43121214  0.65194244    -0.80600
O472        O  0.16318615  0.42903533  0.59797376    -0.74100
Al473      Al  0.19102355  0.39804906  0.66023141     1.90100
O474        O  0.24669533  0.44790680  0.60353230    -0.73200
O475        O  0.14393194  0.36019541  0.56556682    -0.73000
O476        O  0.22747884  0.37750472  0.57465949    -0.78700
O477        O  0.10577692  0.31051225  0.60019327    -0.76900
O478        O  0.17955193  0.37145064  0.62377419    -1.13000
O479        O  0.11957618  0.30450772  0.65938331    -0.72200
C480        C  0.10973348  0.32813372  0.67448434     0.98500
C481        C  0.26807380  0.45404603  0.62811878     0.94900
Al482      Al  0.19408915  0.40113415  0.58840543     1.55600
O483        O  0.20264456  0.35812179  0.68173487    -0.76900
C484        C  0.10852917  0.32866274  0.57451498     0.99000
C485        C  0.16751656  0.45028751  0.62216420     0.93900
O486        O  0.18215192  0.44349490  0.64678667    -0.82200
O487        O  0.85771449  0.61707774  0.92422531    -0.81600
C488        C  0.78081415  0.66418591  0.82894193     0.97700
O489        O  0.81430013  0.68838212  0.84410999    -0.70800
O490        O  0.79839183  0.68077036  0.90464455    -0.74300
Al491      Al  0.84077911  0.67886724  0.87945809     1.49000
C492        C  0.78681711  0.66281744  0.93092106     0.93000
O493        O  0.73935607  0.56240497  0.90622577    -0.80600
O494        O  0.82237764  0.56386545  0.84743472    -0.74100
Al495      Al  0.79929748  0.59188052  0.91318063     1.90100
O496        O  0.74063696  0.54976576  0.85647701    -0.73200
O497        O  0.84503405  0.63676534  0.81877411    -0.73000
O498        O  0.76364445  0.62416086  0.83105821    -0.78700
O499        O  0.88586181  0.68202787  0.85469524    -0.76900
O500        O  0.81127138  0.62199375  0.87802388    -1.13000
O501        O  0.87474743  0.68328269  0.91490619    -0.72200
C502        C  0.88237196  0.65655600  0.92795319     0.98500
C503        C  0.72066464  0.54212045  0.88202015     0.94900
Al504      Al  0.79426927  0.59578664  0.84151864     1.55600
O505        O  0.79144970  0.63145188  0.93796375    -0.76900
C506        C  0.88138932  0.66631097  0.82790002     0.99000
C507        C  0.81901823  0.54140373  0.87085175     0.93900
O508        O  0.80488589  0.54649135  0.89632001    -0.82200
O509        O  0.84964931  0.23157479  0.82658835    -0.81600
C510        C  0.77229285  0.11305635  0.92508106     0.97700
O511        O  0.80615865  0.12123093  0.91061505    -0.70800
O512        O  0.79166620  0.10923600  0.84978783    -0.74300
Al513      Al  0.83339025  0.15558415  0.87423528     1.49000
C514        C  0.78090950  0.11433093  0.82288418     0.93000
O515        O  0.73119026  0.16701912  0.84541173    -0.80600
O516        O  0.81502483  0.25363948  0.90155340    -0.74100
Al517      Al  0.79127311  0.19827485  0.83798513     1.90100
O518        O  0.73302467  0.18557860  0.89413905    -0.73200
O519        O  0.83706253  0.20545667  0.93306203    -0.73000
O520        O  0.75596762  0.13633369  0.92173230    -0.78700
O521        O  0.87816299  0.19932578  0.89818003    -0.76900
O522        O  0.80359790  0.18263299  0.87394420    -1.13000
O523        O  0.86765573  0.18369119  0.83810372    -0.72200
C524        C  0.87455724  0.21698057  0.82360184     0.98500
C525        C  0.71260308  0.17036763  0.86916898     0.94900
Al526      Al  0.78663382  0.19423903  0.90961920     1.55600
O527        O  0.78430671  0.14962447  0.81500120    -0.76900
C528        C  0.87353656  0.21213827  0.92436018     0.99000
C529        C  0.81095946  0.27127934  0.87760872     0.93900
O530        O  0.79618566  0.25042737  0.85280744    -0.82200
O531        O  0.36873944  0.14207830  0.82467231    -0.81600
C532        C  0.32840733  0.21415621  0.92694901     0.97700
O533        O  0.30349583  0.18078621  0.91211524    -0.70800
O534        O  0.30776657  0.20105794  0.85260873    -0.74300
Al535      Al  0.31089322  0.15703935  0.87470842     1.49000
C536        C  0.32479057  0.21506559  0.82626550     0.93000
O537        O  0.42806870  0.25923056  0.84718128    -0.80600
O538        O  0.42747222  0.17360636  0.90142580    -0.74100
Al539      Al  0.39631971  0.19979127  0.83830998     1.90100
O540        O  0.44189830  0.25507174  0.89620435    -0.73200
O541        O  0.35602389  0.14995892  0.93237881    -0.73000
O542        O  0.36846235  0.23158823  0.92363496    -0.78700
O543        O  0.30925046  0.11040411  0.89671235    -0.76900
O544        O  0.36808068  0.18626127  0.87440251    -1.13000
O545        O  0.30358011  0.12598445  0.83742413    -0.72200
C546        C  0.32873906  0.11872661  0.82181703     0.98500
C547        C  0.44920790  0.27637393  0.87144249     0.94900
Al548      Al  0.39615665  0.20135745  0.91034584     1.55600
O549        O  0.35592532  0.21097148  0.81695422    -0.76900
C550        C  0.32628987  0.11397447  0.92298782     0.99000
C551        C  0.44843277  0.17686504  0.87709611     0.93900
O552        O  0.44192097  0.19125058  0.85220223    -0.82200
C553        C  0.60003964  0.15193071  0.85322623     0.16100
C554        C  0.56481247  0.15260552  0.84006538    -0.32900
C555        C  0.53587236  0.15557103  0.86036184     0.20500
C556        C  0.54075667  0.15593009  0.89232892     0.02700
C557        C  0.57555373  0.15463633  0.90545579    -0.22700
C558        C  0.60541087  0.15352243  0.88517656     0.11900
S559        S  0.64165193  0.15393076  0.83266519    -0.06300
C560        C  0.66726939  0.15888438  0.86746672    -0.09800
C561        C  0.64379052  0.15732182  0.89347339    -0.26400
S562        S  0.50378836  0.16196343  0.91302354    -0.03600
C563        C  0.48230401  0.16560612  0.87828653    -0.17000
C564        C  0.50229721  0.16119594  0.85212568    -0.15000
H565        H  0.56132298  0.15300431  0.81511943     0.20300
H566        H  0.58030497  0.15659517  0.93034784     0.16400
H567        H  0.65523942  0.16118777  0.91713823     0.18900
H568        H  0.49370304  0.16352302  0.82841618     0.12200
C569        C  0.60871119  0.44614595  0.89757377     0.16100
C570        C  0.57309592  0.40984899  0.91021412    -0.32900
C571        C  0.54187466  0.38120200  0.88954834     0.20500
C572        C  0.54526494  0.38881402  0.85779110     0.02700
C573        C  0.58068822  0.42532766  0.84518051    -0.22700
C574        C  0.61249690  0.45337925  0.86576253     0.11900
S575        S  0.65182694  0.48279819  0.91842461    -0.06300
C576        C  0.67567991  0.50743776  0.88382238    -0.09800
C577        C  0.65089452  0.48853738  0.85773552    -0.26400
S578        S  0.50526307  0.34887234  0.83652435    -0.03600
C579        C  0.48442297  0.32112869  0.87072126    -0.17000
C580        C  0.50694173  0.34247408  0.89711031    -0.15000
H581        H  0.57062049  0.40340328  0.93492995     0.20300
H582        H  0.58410998  0.43078628  0.82033740     0.16400
H583        H  0.66112091  0.49902262  0.83407514     0.18900
H584        H  0.49922908  0.32951914  0.92046258     0.12200
C585        C  0.83516567  0.44685862  0.85398211     0.16100
C586        C  0.83348799  0.41070787  0.84077477    -0.32900
C587        C  0.83146024  0.37935195  0.86106726     0.20500
C588        C  0.83285925  0.38452039  0.89304310     0.02700
C589        C  0.83530404  0.42097588  0.90622589    -0.22700
C590        C  0.83555861  0.45145813  0.88597627     0.11900
S591        S  0.83218432  0.48580327  0.83354145    -0.06300
C592        C  0.82965665  0.50736561  0.86851830    -0.09800
C593        C  0.83265246  0.48626274  0.89444054    -0.26400
S594        S  0.82751919  0.34184189  0.91373195    -0.03600
C595        C  0.82196167  0.31619236  0.87897103    -0.17000
C596        C  0.82520276  0.34010089  0.85283489    -0.15000
H597        H  0.83162400  0.40619871  0.81586234     0.20300
H598        H  0.83482409  0.42439476  0.93117640     0.16400
H599        H  0.83043939  0.49460043  0.91824622     0.18900
H600        H  0.82170434  0.32880921  0.82916009     0.12200
C601        C  0.98051335  0.27101868  0.96849975     0.16100
C602        C  0.02380510  0.29266441  0.47736341    -0.32900
C603        C  0.03300303  0.29715532  0.50923828     0.20500
C604        C  0.00054825  0.28071859  0.53140280     0.02700
C605        C  0.95716519  0.26009083  0.02252799    -0.22700
C606        C  0.94795542  0.25565620  0.99057223     0.11900
S607        S  0.96289248  0.25959386  0.93104044    -0.06300
C608        C  0.91099356  0.23432044  0.94507535    -0.09800
C609        C  0.90789445  0.23511438  0.97721581    -0.26400
S610        S  0.01861230  0.28684475  0.56884596    -0.03600
C611        C  0.07039708  0.31249443  0.55442845    -0.17000
C612        C  0.07309860  0.31597965  0.52231970    -0.15000
H613        H  0.04924095  0.30464637  0.46014269     0.20300
H614        H  0.93171488  0.24721214  0.03974960     0.16400
H615        H  0.87796895  0.22014977  0.99013152     0.18900
H616        H  0.10285729  0.33046983  0.50920398     0.12200
C617        C  0.96430919  0.28231142  0.76520838     0.16100
C618        C  0.99445670  0.31346487  0.74503704    -0.32900
C619        C  0.02076525  0.30279504  0.72786593     0.20500
C620        C  0.01658020  0.26259970  0.73016722     0.02700
C621        C  0.98662723  0.23156537  0.75042450    -0.22700
C622        C  0.96101479  0.24256108  0.76807359     0.11900
S623        S  0.92920362  0.28878423  0.78792381    -0.06300
C624        C  0.91067611  0.23776328  0.80185787    -0.09800
C625        C  0.93052993  0.21696359  0.78931935    -0.26400
S626        S  0.05129541  0.25574684  0.70743307    -0.03600
C627        C  0.07255385  0.30798798  0.69536565    -0.17000
C628        C  0.05311297  0.32918055  0.70795231    -0.15000
H629        H  0.99752223  0.34472052  0.74302350     0.20300
H630        H  0.98371142  0.20037835  0.75255976     0.16400
H631        H  0.92236612  0.18450715  0.79490929     0.18900
H632        H  0.06244262  0.36212710  0.70305737     0.12200
C633        C  0.26590274  0.27985584  0.71767644     0.16100
C634        C  0.28829073  0.25953715  0.72741939    -0.32900
C635        C  0.29152902  0.25472638  0.75949751     0.20500
C636        C  0.27284743  0.26894634  0.78098417     0.02700
C637        C  0.25114178  0.28998323  0.77125626    -0.22700
C638        C  0.24837943  0.29528537  0.73917618     0.11900
S639        S  0.25693610  0.28738878  0.67979413    -0.06300
C640        C  0.23012792  0.31245480  0.69307013    -0.09800
C641        C  0.22829247  0.31450950  0.72517774    -0.26400
S642        S  0.27854343  0.25796992  0.81878907    -0.03600
C643        C  0.30736804  0.23499519  0.80550376    -0.17000
C644        C  0.31178116  0.23566267  0.77345653    -0.15000
H645        H  0.30227136  0.24768036  0.71073294     0.20300
H646        H  0.23673515  0.30140009  0.78793358     0.16400
H647        H  0.21218763  0.32844270  0.73760759     0.18900
H648        H  0.32821800  0.22209618  0.76100175     0.12200
C649        C  0.26522254  0.24082492  0.98477382     0.16100
C650        C  0.23418127  0.23942502  0.50495609    -0.32900
C651        C  0.24356268  0.27726729  0.52003735     0.20500
C652        C  0.28201048  0.31512271  0.51515373     0.02700
C653        C  0.31352626  0.31639262  0.99524606    -0.22700
C654        C  0.30424431  0.27824958  0.98028330     0.11900
S655        S  0.25892672  0.19835230  0.96380987    -0.06300
C656        C  0.30970473  0.23090433  0.94909757    -0.09800
C657        C  0.33033526  0.27260519  0.95994740    -0.26400
S658        S  0.28604029  0.35788428  0.53491810    -0.03600
C659        C  0.23572010  0.32393561  0.55012917    -0.17000
C660        C  0.21709501  0.28203027  0.54024563    -0.15000
H661        H  0.20385111  0.21013730  0.50857264     0.20300
H662        H  0.34370407  0.34576118  0.99143750     0.16400
H663        H  0.36222944  0.29739154  0.95301531     0.18900
H664        H  0.18550559  0.25650510  0.54710239     0.12200
C665        C  0.28024194  0.00751259  0.96773551     0.16100
C666        C  0.26072555  0.96457897  0.97734391    -0.32900
C667        C  0.25658217  0.95611606  0.50944110     0.20500
C668        C  0.27095237  0.98888620  0.53098542     0.02700
C669        C  0.29131345  0.03178104  0.52139275    -0.22700
C670        C  0.29569443  0.04024219  0.98936454     0.11900
S671        S  0.28637378  0.02461905  0.92995379    -0.06300
C672        C  0.31069837  0.07638043  0.94353485    -0.09800
C673        C  0.31371914  0.07979938  0.97560869    -0.26400
S674        S  0.26041463  0.97195793  0.56875591    -0.03600
C675        C  0.23708832  0.92013218  0.55551447    -0.17000
C676        C  0.23759034  0.91654821  0.52342549    -0.15000
H677        H  0.24869007  0.93889640  0.96057156     0.20300
H678        H  0.30262981  0.05742576  0.53815908     0.16400
H679        H  0.32741992  0.10966675  0.98821889     0.18900
H680        H  0.22364282  0.88654030  0.51098360     0.12200
C681        C  0.26663770  0.02908812  0.76371557     0.16100
C682        C  0.23570431  0.99853914  0.74400258    -0.32900
C683        C  0.24663918  0.97193227  0.72778460     0.20500
C684        C  0.28653548  0.97538266  0.73104696     0.02700
C685        C  0.31789957  0.00666454  0.75027863    -0.22700
C686        C  0.30698925  0.03342797  0.76648881     0.11900
S687        S  0.25866158  0.06291937  0.78634287    -0.06300
C688        C  0.31046163  0.08370034  0.79938385    -0.09800
C689        C  0.33262535  0.06525218  0.78676249    -0.26400
S690        S  0.29239817  0.93820884  0.71069322    -0.03600
C691        C  0.24078894  0.91838063  0.69743546    -0.17000
C692        C  0.22043278  0.93961109  0.70823438    -0.15000
H693        H  0.20424783  0.99520702  0.74177841     0.20300
H694        H  0.34911985  0.00956544  0.75286532     0.16400
H695        H  0.36533565  0.07419542  0.79245478     0.18900
H696        H  0.18779766  0.93113397  0.70268935     0.12200
C697        C  0.98832556  0.71619186  0.78308268     0.16100
C698        C  0.03158866  0.73674999  0.77386179    -0.32900
C699        C  0.04067006  0.74178237  0.74188863     0.20500
C700        C  0.00814816  0.72739752  0.72004348     0.02700
C701        C  0.96482580  0.70610533  0.72925691    -0.22700
C702        C  0.95573291  0.70069175  0.76123998     0.11900
S703        S  0.97074954  0.70844736  0.82073214    -0.06300
C704        C  0.91888139  0.68321927  0.80696387    -0.09800
C705        C  0.91573164  0.68125381  0.77482631    -0.26400
S706        S  0.02601460  0.73888242  0.68246401    -0.03600
C707        C  0.07784429  0.76267988  0.69628275    -0.17000
C708        C  0.08070904  0.76152654  0.72837254    -0.15000
H709        H  0.05706927  0.74871235  0.79086819     0.20300
H710        H  0.93935886  0.69468091  0.71226568     0.16400
H711        H  0.88582093  0.66718990  0.76211984     0.18900
H712        H  0.11054837  0.77544752  0.74116120     0.12200
C713        C  0.02927155  0.75591099  0.51599609     0.16100
C714        C  0.00120728  0.75717353  0.99433564    -0.32900
C715        C  0.97299388  0.71904502  0.97928701     0.20500
C716        C  0.97233348  0.68110537  0.98560718     0.02700
C717        C  0.00092906  0.67995088  0.50702602    -0.22700
C718        C  0.02952075  0.71831206  0.52192203     0.11900
S719        S  0.06538544  0.79881345  0.53685789    -0.06300
C720        C  0.08176721  0.76609295  0.55326931    -0.09800
C721        C  0.06007426  0.72408093  0.54323392    -0.26400
S722        S  0.93394226  0.63793572  0.96583335    -0.03600
C723        C  0.91916663  0.67170284  0.94880058    -0.17000
C724        C  0.94288457  0.71393770  0.95798475    -0.15000
H725        H  0.00117361  0.78655633  0.98955966     0.20300
H726        H  0.00073991  0.65050275  0.51197822     0.16400
H727        H  0.06630571  0.69928574  0.55111907     0.18900
H728        H  0.93755568  0.73935402  0.95015491     0.12200
C729        C  0.15332389  0.54647878  0.60678970     0.16100
C730        C  0.15355037  0.58199815  0.59354766    -0.32900
C731        C  0.15583890  0.61339617  0.61375341     0.20500
C732        C  0.15655774  0.60903830  0.64573363     0.02700
C733        C  0.15608705  0.57340871  0.65897301    -0.22700
C734        C  0.15506626  0.54263131  0.63874465     0.11900
S735        S  0.15434175  0.50679602  0.58620018    -0.06300
C736        C  0.15830470  0.48541684  0.62096851    -0.09800
C737        C  0.15799729  0.50763701  0.64704225    -0.26400
S738        S  0.16149301  0.65155950  0.66621701    -0.03600
C739        C  0.16407187  0.67610891  0.63132194    -0.17000
C740        C  0.16014355  0.65189615  0.60531729    -0.15000
H741        H  0.15355176  0.58575380  0.56860068     0.20300
H742        H  0.15801299  0.57058312  0.68386590     0.16400
H743        H  0.16145970  0.49958901  0.67068141     0.18900
H744        H  0.16207418  0.66259257  0.58154720     0.12200
C745        C  0.75061919  0.03862649  0.75312979     0.16100
C746        C  0.74343373  0.02041705  0.72341940    -0.32900
C747        C  0.72211142  0.97563114  0.72145519     0.20500
C748        C  0.70868715  0.95020349  0.74795040     0.02700
C749        C  0.71712140  0.96846633  0.77767226    -0.22700
C750        C  0.73830134  0.01323954  0.77964200     0.11900
S751        S  0.77319625  0.09202123  0.76030633    -0.06300
C752        C  0.76658189  0.08022303  0.79946662    -0.09800
C753        C  0.74801399  0.03700909  0.80639928    -0.26400
S754        S  0.68041124  0.89659099  0.74072288    -0.03600
C755        C  0.68710823  0.90839517  0.70159856    -0.17000
C756        C  0.71045540  0.95176536  0.69469317    -0.15000
H757        H  0.75307522  0.04024882  0.70274092     0.20300
H758        H  0.70665305  0.94860207  0.79833265     0.16400
H759        H  0.74119061  0.02369912  0.82965995     0.18900
H760        H  0.71733662  0.96505777  0.67142338     0.12200
C761        C  0.73133243  0.97576057  0.52144058     0.16100
C762        C  0.76233489  0.00644450  0.00149259    -0.32900
C763        C  0.74984809  0.02973889  0.98255199     0.20500
C764        C  0.70862833  0.02352131  0.98389826     0.02700
C765        C  0.67756461  0.99273109  0.50380539    -0.22700
C766        C  0.68980527  0.96877654  0.52229108     0.11900
S767        S  0.73978789  0.94321505  0.54537736    -0.06300
C768        C  0.68657024  0.91926451  0.55618733    -0.09800
C769        C  0.66383419  0.93619436  0.54216808    -0.26400
S770        S  0.70027422  0.05596022  0.95969180    -0.03600
C771        C  0.75256413  0.07734695  0.94716835    -0.17000
C772        C  0.77514801  0.06037438  0.96127344    -0.15000
H773        H  0.79460285  0.01155556  0.00050002     0.20300
H774        H  0.64520639  0.98739534  0.50462020     0.16400
H775        H  0.63002986  0.92477803  0.54589290     0.18900
H776        H  0.80853670  0.07063298  0.95673276     0.12200
C777        C  0.74849348  0.70077392  0.00023916     0.16100
C778        C  0.73961972  0.71071264  0.52975620    -0.32900
C779        C  0.71694554  0.73271567  0.53126114     0.20500
C780        C  0.70332814  0.74389859  0.50457764     0.02700
C781        C  0.71298186  0.73475892  0.97506791    -0.22700
C782        C  0.73604039  0.71317284  0.97355783     0.11900
S783        S  0.77447235  0.67316322  0.99347552    -0.06300
C784        C  0.76933402  0.67928397  0.95431737    -0.09800
C785        C  0.74844940  0.70140520  0.94705273    -0.26400
S786        S  0.67475797  0.76887745  0.51128181    -0.03600
C787        C  0.68200828  0.76505357  0.55043429    -0.17000
C788        C  0.70521964  0.74526665  0.55773736    -0.15000
H789        H  0.74969966  0.70147839  0.55060323     0.20300
H790        H  0.70276449  0.74385372  0.95422310     0.16400
H791        H  0.74223919  0.70799761  0.92369351     0.18900
H792        H  0.71275394  0.74006754  0.58109345     0.12200
C793        C  0.68185277  0.70628115  0.73501183     0.16100
C794        C  0.67983886  0.67655474  0.75698359    -0.32900
C795        C  0.71744614  0.68708694  0.77349111     0.20500
C796        C  0.75513008  0.72566860  0.76852910     0.02700
C797        C  0.75729678  0.75498201  0.74628861    -0.22700
C798        C  0.71992717  0.74430426  0.72962857     0.11900
S799        S  0.63953431  0.70065099  0.71347580    -0.06300
C800        C  0.67374479  0.74980799  0.69686202    -0.09800
C801        C  0.71560812  0.76914934  0.70754662    -0.26400
S802        S  0.79705541  0.73311808  0.79112106    -0.03600
C803        C  0.76397275  0.68330892  0.80702992    -0.17000
C804        C  0.72243189  0.66233373  0.79546826    -0.15000
H805        H  0.65026458  0.64670595  0.76114102     0.20300
H806        H  0.78680785  0.78494526  0.74225709     0.16400
H807        H  0.74120061  0.80044000  0.70032376     0.18900
H808        H  0.69747713  0.63066463  0.80255279     0.12200
C809        C  0.38883487  0.83690582  0.60668322     0.16100
C810        C  0.42538204  0.83853873  0.59381146    -0.32900
C811        C  0.45514560  0.83773542  0.61432879     0.20500
C812        C  0.44951742  0.83661789  0.64626319     0.02700
C813        C  0.41325619  0.83557003  0.65913810    -0.22700
C814        C  0.38286980  0.83511134  0.63860615     0.11900
S815        S  0.34706441  0.83360720  0.58574774    -0.06300
C816        C  0.32084560  0.82872812  0.62036696    -0.09800
C817        C  0.34393939  0.83047461  0.64658748    -0.26400
S818        S  0.48775518  0.83278319  0.66708526    -0.03600
C819        C  0.51088298  0.83145704  0.63237462    -0.17000
C820        C  0.49040850  0.83497019  0.60623474    -0.15000
H821        H  0.42956781  0.83866277  0.56889226     0.20300
H822        H  0.40808011  0.83341956  0.68401713     0.16400
H823        H  0.33222315  0.82702651  0.67021415     0.18900
H824        H  0.49961455  0.83343429  0.58251781     0.12200
C825        C  0.44131438  0.61164709  0.60264905     0.16100
C826        C  0.40386870  0.57770194  0.58995015    -0.32900
C827        C  0.37427100  0.54645144  0.61045440     0.20500
C828        C  0.38203020  0.54815954  0.64209540     0.02700
C829        C  0.41966041  0.58191514  0.65476729    -0.22700
C830        C  0.44869546  0.61381329  0.63436768     0.11900
S831        S  0.47938408  0.65467624  0.58207748    -0.06300
C832        C  0.50478904  0.67644928  0.61669683    -0.09800
C833        C  0.48509771  0.65092063  0.64255240    -0.26400
S834        S  0.34119216  0.50808790  0.66315257    -0.03600
C835        C  0.31295810  0.48942736  0.62903825    -0.17000
C836        C  0.33471765  0.51283311  0.60283722    -0.15000
H837        H  0.39737889  0.57649556  0.56532933     0.20300
H838        H  0.42532899  0.58403093  0.67954597     0.16400
H839        H  0.49592322  0.65984467  0.66623029     0.18900
H840        H  0.32174823  0.50633150  0.57954412     0.12200
loop_ 
_geom_bond_atom_site_label_1 
_geom_bond_atom_site_label_2 
_geom_bond_distance 
_geom_bond_site_symmetry_2 
_ccdc_geom_bond_type 
O1           C16   1.259       .  A
O1           Al9   1.898       .  S
C2           O12   1.257       .  A
C2            O3   1.262       .  A
C2          C380   1.472       .  S
O3           Al5   1.919       .  S
O4            C6   1.263       .  A
O4           Al5   1.902       .  S
Al5          O13   1.906       .  S
Al5          O15   1.913       .  S
Al5          O14   1.786       .  S
C6           O19   1.263       .  A
C6          C367   1.466       .  S
O7           C17   1.261       .  A
O7           Al9   1.902       .  S
O8           C21   1.261       .  A
O8          Al18   1.903       .  S
Al9          O22   1.902       .  S
Al9          O19   1.915       .  S
Al9          O14   1.785       .  S
O10          C17   1.262       .  A
O10         Al18   1.909       .  S
O11          C20   1.265       .  A
O11         Al18   1.925       .  S
O12         Al18   1.897       .  S
O13          C20   1.263       .  A
O14         Al18   1.782       .  S
O15          C16   1.260       .  A
C16         C348   1.467       .  S
C17         C412   1.472       .  S
C20         C335   1.472       .  S
C21          O22   1.260       .  A
C21         C399   1.471       .  S
O23          C38   1.257       .  A
O23         Al31   1.895       .  S
C24          O34   1.256       .  A
C24          O25   1.260       .  A
C24         C271   1.464       .  S
O25         Al27   1.912       .  S
O26          C28   1.264       .  A
O26         Al27   1.902       .  S
Al27         O35   1.903       .  S
Al27         O37   1.905       .  S
Al27         O36   1.781       .  S
C28          O41   1.268       .  A
C28         C255   1.474       .  S
O29          C39   1.260       .  A
O29         Al31   1.897       .  S
O30          C43   1.259       .  A
O30         Al40   1.890       .  S
Al31         O44   1.912       .  S
Al31         O41   1.936       .  S
Al31         O36   1.782       .  S
O32          C39   1.263       .  A
O32         Al40   1.913       .  S
O33          C42   1.268       .  A
O33         Al40   1.939       .  S
O34         Al40   1.892       .  S
O35          C42   1.263       .  A
O36         Al40   1.780       .  S
O37          C38   1.258       .  A
C38         C300   1.459       .  S
C39         C396   1.472       .  S
C42         C287   1.476       .  S
C43          O44   1.263       .  A
C43         C319   1.468       .  S
O45          C60   1.260       .  A
O45         Al53   1.900       .  S
C46          O56   1.256       .  A
C46          O47   1.261       .  A
C46         C239   1.465       .  S
O47         Al49   1.914       .  S
O48          C50   1.264       .  A
O48         Al49   1.906       .  S
Al49         O57   1.905       .  S
Al49         O59   1.908       .  S
Al49         O58   1.780       .  S
C50          O63   1.267       .  A
C50         C220   1.473       .  S
O51          C61   1.262       .  A
O51         Al53   1.903       .  S
O52          C65   1.259       .  A
O52         Al62   1.888       .  S
Al53         O66   1.915       .  S
Al53         O63   1.930       .  S
Al53         O58   1.781       .  S
O54          C61   1.264       .  A
O54         Al62   1.913       .  S
O55          C64   1.267       .  A
O55         Al62   1.936       .  S
O56         Al62   1.889       .  S
O57          C64   1.262       .  A
O58         Al62   1.780       .  S
O59          C60   1.260       .  A
C60         C207   1.463       .  S
C61         C415   1.473       .  S
C64         C191   1.476       .  S
C65          O66   1.263       .  A
C65         C316   1.468       .  S
O67          C82   1.256       .  A
O67         Al75   1.888       .  S
C68          O78   1.259       .  A
C68          O69   1.262       .  A
C68         C383   1.470       .  S
O69         Al71   1.919       .  S
O70          C72   1.263       .  A
O70         Al71   1.901       .  S
Al71         O79   1.896       .  S
Al71         O81   1.915       .  S
Al71         O80   1.779       .  S
C72          O85   1.264       .  A
C72         C364   1.465       .  S
O73          C83   1.260       .  A
O73         Al75   1.892       .  S
O74          C87   1.260       .  A
O74         Al84   1.899       .  S
Al75         O88   1.898       .  S
Al75         O85   1.919       .  S
Al75         O80   1.783       .  S
O76          C83   1.264       .  A
O76         Al84   1.915       .  S
O77          C86   1.268       .  A
O77         Al84   1.937       .  S
O78         Al84   1.903       .  S
O79          C86   1.262       .  A
O80         Al84   1.781       .  S
O81          C82   1.262       .  A
C82         C303   1.463       .  S
C83         C156   1.469       .  S
C86         C284   1.473       .  S
C87          O88   1.260       .  A
C87         C172   1.467       .  S
O89         C104   1.257       .  A
O89         Al97   1.886       .  S
C90         O100   1.256       .  A
C90          O91   1.264       .  A
C90         C351   1.464       .  S
O91         Al93   1.927       .  S
O92          C94   1.265       .  A
O92         Al93   1.912       .  S
Al93        O101   1.901       .  S
Al93        O103   1.922       .  S
Al93        O102   1.781       .  S
C94         O107   1.265       .  A
C94         C332   1.474       .  S
O95         C105   1.260       .  A
O95         Al97   1.897       .  S
O96         C109   1.258       .  A
O96        Al106   1.888       .  S
Al97        O110   1.916       .  S
Al97        O107   1.925       .  S
Al97        O102   1.780       .  S
O98         C105   1.265       .  A
O98        Al106   1.917       .  S
O99         C108   1.267       .  A
O99        Al106   1.938       .  S
O100       Al106   1.881       .  S
O101        C108   1.262       .  A
O102       Al106   1.780       .  S
O103        C104   1.263       .  A
C104        C204   1.463       .  S
C105        C140   1.472       .  S
C108        C188   1.477       .  S
C109        O110   1.263       .  A
C109        C175   1.467       .  S
O111        C126   1.258       .  A
O111       Al119   1.900       .  S
C112        O122   1.258       .  A
C112        O113   1.259       .  A
C112        C236   1.464       .  S
O113       Al115   1.908       .  S
O114        C116   1.265       .  A
O114       Al115   1.905       .  S
Al115       O123   1.908       .  S
Al115       O125   1.903       .  S
Al115       O124   1.781       .  S
C116        O129   1.268       .  A
C116        C223   1.473       .  S
O117        C127   1.260       .  A
O117       Al119   1.899       .  S
O118        C131   1.260       .  A
O118       Al128   1.891       .  S
Al119       O132   1.917       .  S
Al119       O129   1.931       .  S
Al119       O124   1.782       .  S
O120        C127   1.261       .  A
O120       Al128   1.904       .  S
O121        C130   1.267       .  A
O121       Al128   1.929       .  S
O122       Al128   1.903       .  S
O123        C130   1.264       .  A
O124       Al128   1.781       .  S
O125        C126   1.257       .  A
C126        C268   1.463       .  S
C127        C159   1.470       .  S
C130        C252   1.473       .  S
C131        O132   1.263       .  A
C131        C143   1.470       .  S
C133        S139   1.710       .  A
C133        C138   1.387       .  A
C133        C134   1.404       .  A
C134        C135   1.404       .  A
C134        H145   1.083       .  S
C135        C144   1.372       .  A
C135        C136   1.387       .  A
C136        S142   1.705       .  A
C136        C137   1.399       .  A
C137        C138   1.401       .  A
C137        H146   1.083       .  S
C138        C141   1.368       .  A
S139        C140   1.724       .  A
C140        C141   1.386       .  A
C141        H147   1.083       .  S
S142        C143   1.721       .  A
C143        C144   1.388       .  A
C144        H148   1.083       .  S
C149        S155   1.707       .  A
C149        C154   1.387       .  A
C149        C150   1.401       .  A
C150        C151   1.402       .  A
C150        H161   1.082       .  S
C151        C160   1.368       .  A
C151        C152   1.387       .  A
C152        S158   1.708       .  A
C152        C153   1.401       .  A
C153        C154   1.402       .  A
C153        H162   1.082       .  S
C154        C157   1.369       .  A
S155        C156   1.722       .  A
C156        C157   1.386       .  A
C157        H163   1.083       .  S
S158        C159   1.722       .  A
C159        C160   1.387       .  A
C160        H164   1.083       .  S
C165        S171   1.708       .  A
C165        C170   1.387       .  A
C165        C166   1.401       .  A
C166        C167   1.402       .  A
C166        H177   1.082       .  S
C167        C176   1.369       .  A
C167        C168   1.387       .  A
C168        S174   1.705       .  A
C168        C169   1.399       .  A
C169        C170   1.401       .  A
C169        H178   1.083       .  S
C170        C173   1.366       .  A
S171        C172   1.721       .  A
C172        C173   1.386       .  A
C173        H179   1.083       .  S
S174        C175   1.721       .  A
C175        C176   1.386       .  A
C176        H180   1.083       .  S
C181        S187   1.709       .  A
C181        C186   1.387       .  A
C181        C602   1.403   1_655  A
C182        C183   1.403   1_556  A
C182        C601   1.403   1_455  A
C182        H193   1.083       .  S
C183        C192   1.373       .  A
C183        C184   1.387       .  A
C184        S190   1.713       .  A
C184        C605   1.406   1_455  A
C185        C186   1.407       .  A
C185        C604   1.406   1_655  A
C185        H194   1.083       .  S
C186        C189   1.376       .  A
S187        C188   1.723       .  A
C188        C189   1.389       .  A
C189        H195   1.083       .  S
S190        C191   1.725       .  A
C191        C192   1.386       .  A
C192        H196   1.083       .  S
C197        S203   1.705       .  A
C197        C202   1.387       .  A
C197        C198   1.400       .  A
C198        C199   1.401   1_655  A
C198        H209   1.083       .  S
C199        C208   1.369       .  A
C199        C200   1.388       .  A
C200        S206   1.701       .  A
C200        C201   1.398   1_455  A
C201        C202   1.399       .  A
C201        H210   1.083       .  S
C202        C205   1.366       .  A
S203        C204   1.721       .  A
C204        C205   1.383       .  A
C205        H211   1.083       .  S
S206        C207   1.721       .  A
C207        C208   1.384       .  A
C208        H212   1.083       .  S
C213        S219   1.711       .  A
C213        C218   1.387       .  A
C213        C214   1.402       .  A
C214        C215   1.404       .  A
C214        H225   1.083       .  S
C215        C224   1.371       .  A
C215        C216   1.387       .  A
C216        S222   1.712       .  A
C216        C217   1.403       .  A
C217        C218   1.405       .  A
C217        H226   1.083       .  S
C218        C221   1.371       .  A
S219        C220   1.723       .  A
C220        C221   1.388       .  A
C221        H227   1.083       .  S
S222        C223   1.723       .  A
C223        C224   1.387       .  A
C224        H228   1.083       .  S
C229        S235   1.698       .  A
C229        C234   1.388       .  A
C229        C650   1.396       .  A
C230        C231   1.396       .  A
C230        C649   1.396   1_554  A
C230        H241   1.083       .  S
C231        C240   1.364       .  A
C231        C232   1.387       .  A
C232        S238   1.709       .  A
C232        C653   1.404   1_554  A
C233        C234   1.404       .  A
C233        C652   1.404       .  A
C233        H242   1.083       .  S
C234        C237   1.372       .  A
S235        C236   1.719       .  A
C236        C237   1.386       .  A
C237        H243   1.083       .  S
S238        C239   1.724       .  A
C239        C240   1.382       .  A
C240        H244   1.083       .  S
C245        S251   1.712       .  A
C245        C250   1.387       .  A
C245        C246   1.404   1_545  A
C246        C667   1.406       .  A
C246        H257   1.082       .  S
C247        C256   1.373       .  A
C247        C248   1.387       .  A
C247        C666   1.406   1_554  A
C248        S254   1.709       .  A
C248        C249   1.402   1_565  A
C249        C670   1.403   1_554  A
C249        H258   1.082       .  S
C250        C253   1.370       .  A
C250        C669   1.403       .  A
S251        C252   1.724       .  A
C252        C253   1.386       .  A
C253        H259   1.083       .  S
S254        C255   1.722       .  A
C255        C256   1.389       .  A
C256        H260   1.083       .  S
C261        S267   1.700       .  A
C261        C266   1.388       .  A
C261        C262   1.397   1_545  A
C262        C263   1.398       .  A
C262        H273   1.083       .  S
C263        C272   1.365       .  A
C263        C264   1.387       .  A
C264        S270   1.707       .  A
C264        C265   1.401   1_565  A
C265        C266   1.402       .  A
C265        H274   1.083       .  S
C266        C269   1.370       .  A
S267        C268   1.720       .  A
C268        C269   1.385       .  A
C269        H275   1.083       .  S
S270        C271   1.722       .  A
C271        C272   1.383       .  A
C272        H276   1.083       .  S
C277        S283   1.709       .  A
C277        C282   1.387       .  A
C277        C278   1.403   1_655  A
C278        C279   1.404       .  A
C278        H289   1.082       .  S
C279        C288   1.373       .  A
C279        C280   1.387       .  A
C280        S286   1.711       .  A
C280        C281   1.404   1_455  A
C281        C282   1.405       .  A
C281        H290   1.082       .  S
C282        C285   1.374       .  A
S283        C284   1.723       .  A
C284        C285   1.388       .  A
C285        H291   1.083       .  S
S286        C287   1.724       .  A
C287        C288   1.388       .  A
C288        H292   1.083       .  S
C293        S299   1.699       .  A
C293        C298   1.388       .  A
C293        C714   1.395   1_554  A
C294        C295   1.397   1_455  A
C294        C713   1.395       .  A
C294        H305   1.083       .  S
C295        C304   1.363       .  A
C295        C296   1.387       .  A
C296        S302   1.707       .  A
C296        C717   1.401   1_655  A
C297        C298   1.402       .  A
C297        C716   1.401   1_454  A
C297        H306   1.083       .  S
C298        C301   1.369       .  A
S299        C300   1.719       .  A
C300        C301   1.384       .  A
C301        H307   1.083       .  S
S302        C303   1.723       .  A
C303        C304   1.382       .  A
C304        H308   1.083       .  S
C309        S315   1.705       .  A
C309        C314   1.387       .  A
C309        C310   1.401       .  A
C310        C311   1.402       .  A
C310        H321   1.082       .  S
C311        C320   1.370       .  A
C311        C312   1.387       .  A
C312        S318   1.705       .  A
C312        C313   1.401       .  A
C313        C314   1.401       .  A
C313        H322   1.082       .  S
C314        C317   1.369       .  A
S315        C316   1.722       .  A
C316        C317   1.386       .  A
C317        H323   1.083       .  S
S318        C319   1.722       .  A
C319        C320   1.386       .  A
C320        H324   1.083       .  S
C325        S331   1.706       .  A
C325        C330   1.387       .  A
C325        C326   1.404       .  A
C326        C327   1.403   1_545  A
C326        H337   1.083       .  S
C327        C336   1.375       .  A
C327        C328   1.387       .  A
C328        S334   1.706       .  A
C328        C329   1.404       .  A
C329        C330   1.403   1_565  A
C329        H338   1.082       .  S
C330        C333   1.376       .  A
S331        C332   1.724       .  A
C332        C333   1.387       .  A
C333        H339   1.083       .  S
S334        C335   1.723       .  A
C335        C336   1.387       .  A
C336        H340   1.083       .  S
C341        S347   1.703       .  A
C341        C346   1.387       .  A
C341        C762   1.399   1_565  A
C342        C343   1.400       .  A
C342        C761   1.399   1_545  A
C342        H353   1.083       .  S
C343        C352   1.368       .  A
C343        C344   1.387       .  A
C344        S350   1.705       .  A
C344        C765   1.401   1_545  A
C345        C346   1.401       .  A
C345        C764   1.401   1_564  A
C345        H354   1.083       .  S
C346        C349   1.370       .  A
S347        C348   1.722       .  A
C348        C349   1.385       .  A
C349        H355   1.083       .  S
S350        C351   1.722       .  A
C351        C352   1.384       .  A
C352        H356   1.083       .  S
C357        S363   1.704       .  A
C357        C362   1.388       .  A
C357        C778   1.401       .  A
C358        C359   1.401       .  A
C358        C777   1.401       .  A
C358        H369   1.083       .  S
C359        C368   1.370       .  A
C359        C360   1.388       .  A
C360        S366   1.703       .  A
C360        C781   1.400   1_554  A
C361        C362   1.400       .  A
C361        C780   1.400       .  A
C361        H370   1.083       .  S
C362        C365   1.369       .  A
S363        C364   1.722       .  A
C364        C365   1.383       .  A
C365        H371   1.083       .  S
S366        C367   1.722       .  A
C367        C368   1.384       .  A
C368        H372   1.083       .  S
C373        S379   1.710       .  A
C373        C378   1.387       .  A
C373        C374   1.405       .  A
C374        C375   1.405       .  A
C374        H385   1.083       .  S
C375        C384   1.374       .  A
C375        C376   1.387       .  A
C376        S382   1.703       .  A
C376        C377   1.400       .  A
C377        C378   1.400       .  A
C377        H386   1.083       .  S
C378        C381   1.369       .  A
S379        C380   1.724       .  A
C380        C381   1.385       .  A
C381        H387   1.083       .  S
S382        C383   1.721       .  A
C383        C384   1.388       .  A
C384        H388   1.083       .  S
C389        S395   1.709       .  A
C389        C394   1.387       .  A
C389        C390   1.402       .  A
C390        C391   1.403       .  A
C390        H401   1.083       .  S
C391        C400   1.369       .  A
C391        C392   1.387       .  A
C392        S398   1.710       .  A
C392        C393   1.401       .  A
C393        C394   1.403       .  A
C393        H402   1.083       .  S
C394        C397   1.370       .  A
S395        C396   1.723       .  A
C396        C397   1.387       .  A
C397        H403   1.083       .  S
S398        C399   1.722       .  A
C399        C400   1.388       .  A
C400        H404   1.083       .  S
C405        S411   1.710       .  A
C405        C410   1.387       .  A
C405        C406   1.402       .  A
C406        C407   1.403       .  A
C406        H417   1.082       .  S
C407        C416   1.370       .  A
C407        C408   1.387       .  A
C408        S414   1.710       .  A
C408        C409   1.402       .  A
C409        C410   1.404       .  A
C409        H418   1.082       .  S
C410        C413   1.370       .  A
S411        C412   1.722       .  A
C412        C413   1.388       .  A
C413        H419   1.083       .  S
S414        C415   1.723       .  A
C415        C416   1.388       .  A
C416        H420   1.083       .  S
O421        C436   1.259       .  A
O421       Al429   1.898       .  S
C422        O432   1.257       .  A
C422        O423   1.262       .  A
C422        C800   1.472       .  S
O423       Al425   1.919       .  S
O424        C426   1.263       .  A
O424       Al425   1.902       .  S
Al425       O433   1.906       .  S
Al425       O435   1.913       .  S
Al425       O434   1.786       .  S
C426        O439   1.263       .  A
C426        C787   1.466       .  S
O427        C437   1.261       .  A
O427       Al429   1.902       .  S
O428        C441   1.261       .  A
O428       Al438   1.903       .  S
Al429       O442   1.902       .  S
Al429       O439   1.915       .  S
Al429       O434   1.785       .  S
O430        C437   1.262       .  A
O430       Al438   1.909       .  S
O431        C440   1.265       .  A
O431       Al438   1.925       .  S
O432       Al438   1.897       .  S
O433        C440   1.263       .  A
O434       Al438   1.782       .  S
O435        C436   1.260       .  A
C436        C768   1.467       .  S
C437        C832   1.472       .  S
C440        C755   1.472       .  S
C441        O442   1.260       .  A
C441        C819   1.471       .  S
O443        C458   1.257       .  A
O443       Al451   1.895       .  S
C444        O454   1.256       .  A
C444        O445   1.260       .  A
C444        C691   1.464       .  S
O445       Al447   1.912       .  S
O446        C448   1.264       .  A
O446       Al447   1.902       .  S
Al447       O455   1.903       .  S
Al447       O457   1.905       .  S
Al447       O456   1.781       .  S
C448        O461   1.268       .  A
C448        C675   1.474       .  S
O449        C459   1.260       .  A
O449       Al451   1.897       .  S
O450        C463   1.259       .  A
O450       Al460   1.890       .  S
Al451       O464   1.912       .  S
Al451       O461   1.936       .  S
Al451       O456   1.782       .  S
O452        C459   1.263       .  A
O452       Al460   1.913       .  S
O453        C462   1.268       .  A
O453       Al460   1.939       .  S
O454       Al460   1.892       .  S
O455        C462   1.263       .  A
O456       Al460   1.780       .  S
O457        C458   1.258       .  A
C458        C720   1.459       .  S
C459        C816   1.472       .  S
C462        C707   1.476       .  S
C463        O464   1.263       .  A
C463        C739   1.468       .  S
O465        C480   1.260       .  A
O465       Al473   1.900       .  S
C466        O476   1.256       .  A
C466        O467   1.261       .  A
C466        C659   1.465       .  S
O467       Al469   1.914       .  S
O468        C470   1.264       .  A
O468       Al469   1.906       .  S
Al469       O477   1.905       .  S
Al469       O479   1.908       .  S
Al469       O478   1.780       .  S
C470        O483   1.267       .  A
C470        C640   1.473       .  S
O471        C481   1.262       .  A
O471       Al473   1.903       .  S
O472        C485   1.259       .  A
O472       Al482   1.888       .  S
Al473       O486   1.915       .  S
Al473       O483   1.930       .  S
Al473       O478   1.781       .  S
O474        C481   1.264       .  A
O474       Al482   1.913       .  S
O475        C484   1.267       .  A
O475       Al482   1.936       .  S
O476       Al482   1.889       .  S
O477        C484   1.262       .  A
O478       Al482   1.780       .  S
O479        C480   1.260       .  A
C480        C627   1.463       .  S
C481        C835   1.473       .  S
C484        C611   1.476       .  S
C485        O486   1.263       .  A
C485        C736   1.468       .  S
O487        C502   1.256       .  A
O487       Al495   1.888       .  S
C488        O498   1.259       .  A
C488        O489   1.262       .  A
C488        C803   1.470       .  S
O489       Al491   1.919       .  S
O490        C492   1.263       .  A
O490       Al491   1.901       .  S
Al491       O499   1.896       .  S
Al491       O501   1.915       .  S
Al491       O500   1.779       .  S
C492        O505   1.264       .  A
C492        C784   1.465       .  S
O493        C503   1.260       .  A
O493       Al495   1.892       .  S
O494        C507   1.260       .  A
O494       Al504   1.899       .  S
Al495       O508   1.898       .  S
Al495       O505   1.919       .  S
Al495       O500   1.783       .  S
O496        C503   1.264       .  A
O496       Al504   1.915       .  S
O497        C506   1.268       .  A
O497       Al504   1.937       .  S
O498       Al504   1.903       .  S
O499        C506   1.262       .  A
O500       Al504   1.781       .  S
O501        C502   1.262       .  A
C502        C723   1.463       .  S
C503        C576   1.469       .  S
C506        C704   1.473       .  S
C507        O508   1.260       .  A
C507        C592   1.467       .  S
O509        C524   1.257       .  A
O509       Al517   1.886       .  S
C510        O520   1.256       .  A
C510        O511   1.264       .  A
C510        C771   1.464       .  S
O511       Al513   1.927       .  S
O512        C514   1.265       .  A
O512       Al513   1.912       .  S
Al513       O521   1.901       .  S
Al513       O523   1.922       .  S
Al513       O522   1.781       .  S
C514        O527   1.265       .  A
C514        C752   1.474       .  S
O515        C525   1.260       .  A
O515       Al517   1.897       .  S
O516        C529   1.258       .  A
O516       Al526   1.888       .  S
Al517       O530   1.916       .  S
Al517       O527   1.925       .  S
Al517       O522   1.780       .  S
O518        C525   1.265       .  A
O518       Al526   1.917       .  S
O519        C528   1.267       .  A
O519       Al526   1.938       .  S
O520       Al526   1.881       .  S
O521        C528   1.262       .  A
O522       Al526   1.780       .  S
O523        C524   1.263       .  A
C524        C624   1.463       .  S
C525        C560   1.472       .  S
C528        C608   1.477       .  S
C529        O530   1.263       .  A
C529        C595   1.467       .  S
O531        C546   1.258       .  A
O531       Al539   1.900       .  S
C532        O542   1.258       .  A
C532        O533   1.259       .  A
C532        C656   1.464       .  S
O533       Al535   1.908       .  S
O534        C536   1.265       .  A
O534       Al535   1.905       .  S
Al535       O543   1.908       .  S
Al535       O545   1.903       .  S
Al535       O544   1.781       .  S
C536        O549   1.268       .  A
C536        C643   1.473       .  S
O537        C547   1.260       .  A
O537       Al539   1.899       .  S
O538        C551   1.260       .  A
O538       Al548   1.891       .  S
Al539       O552   1.917       .  S
Al539       O549   1.931       .  S
Al539       O544   1.782       .  S
O540        C547   1.261       .  A
O540       Al548   1.904       .  S
O541        C550   1.267       .  A
O541       Al548   1.929       .  S
O542       Al548   1.903       .  S
O543        C550   1.264       .  A
O544       Al548   1.781       .  S
O545        C546   1.257       .  A
C546        C688   1.463       .  S
C547        C579   1.470       .  S
C550        C672   1.473       .  S
C551        O552   1.263       .  A
C551        C563   1.470       .  S
C553        S559   1.710       .  A
C553        C558   1.387       .  A
C553        C554   1.404       .  A
C554        C555   1.404       .  A
C554        H565   1.083       .  S
C555        C564   1.372       .  A
C555        C556   1.387       .  A
C556        S562   1.705       .  A
C556        C557   1.399       .  A
C557        C558   1.401       .  A
C557        H566   1.083       .  S
C558        C561   1.368       .  A
S559        C560   1.724       .  A
C560        C561   1.386       .  A
C561        H567   1.083       .  S
S562        C563   1.721       .  A
C563        C564   1.388       .  A
C564        H568   1.083       .  S
C569        S575   1.707       .  A
C569        C574   1.387       .  A
C569        C570   1.401       .  A
C570        C571   1.402       .  A
C570        H581   1.082       .  S
C571        C580   1.368       .  A
C571        C572   1.387       .  A
C572        S578   1.708       .  A
C572        C573   1.401       .  A
C573        C574   1.402       .  A
C573        H582   1.082       .  S
C574        C577   1.369       .  A
S575        C576   1.722       .  A
C576        C577   1.386       .  A
C577        H583   1.083       .  S
S578        C579   1.722       .  A
C579        C580   1.387       .  A
C580        H584   1.083       .  S
C585        S591   1.708       .  A
C585        C590   1.387       .  A
C585        C586   1.401       .  A
C586        C587   1.402       .  A
C586        H597   1.082       .  S
C587        C596   1.369       .  A
C587        C588   1.387       .  A
C588        S594   1.705       .  A
C588        C589   1.399       .  A
C589        C590   1.401       .  A
C589        H598   1.083       .  S
C590        C593   1.366       .  A
S591        C592   1.721       .  A
C592        C593   1.386       .  A
C593        H599   1.083       .  S
S594        C595   1.721       .  A
C595        C596   1.386       .  A
C596        H600   1.083       .  S
C601        S607   1.709       .  A
C601        C606   1.387       .  A
C602        C603   1.403       .  A
C602        H613   1.083       .  S
C603        C612   1.373       .  A
C603        C604   1.387       .  A
C604        S610   1.713       .  A
C605        C606   1.407   1_554  A
C605        H614   1.083       .  S
C606        C609   1.376       .  A
S607        C608   1.723       .  A
C608        C609   1.389       .  A
C609        H615   1.083       .  S
S610        C611   1.725       .  A
C611        C612   1.386       .  A
C612        H616   1.083       .  S
C617        S623   1.705       .  A
C617        C622   1.387       .  A
C617        C618   1.400       .  A
C618        C619   1.401   1_655  A
C618        H629   1.083       .  S
C619        C628   1.369       .  A
C619        C620   1.388       .  A
C620        S626   1.701       .  A
C620        C621   1.398   1_455  A
C621        C622   1.399       .  A
C621        H630   1.083       .  S
C622        C625   1.366       .  A
S623        C624   1.721       .  A
C624        C625   1.383       .  A
C625        H631   1.083       .  S
S626        C627   1.721       .  A
C627        C628   1.384       .  A
C628        H632   1.083       .  S
C633        S639   1.711       .  A
C633        C638   1.387       .  A
C633        C634   1.402       .  A
C634        C635   1.404       .  A
C634        H645   1.083       .  S
C635        C644   1.371       .  A
C635        C636   1.387       .  A
C636        S642   1.712       .  A
C636        C637   1.403       .  A
C637        C638   1.405       .  A
C637        H646   1.083       .  S
C638        C641   1.371       .  A
S639        C640   1.723       .  A
C640        C641   1.388       .  A
C641        H647   1.083       .  S
S642        C643   1.723       .  A
C643        C644   1.387       .  A
C644        H648   1.083       .  S
C649        S655   1.698       .  A
C649        C654   1.388       .  A
C650        C651   1.396       .  A
C650        H661   1.083       .  S
C651        C660   1.364       .  A
C651        C652   1.387       .  A
C652        S658   1.709       .  A
C653        C654   1.404       .  A
C653        H662   1.083       .  S
C654        C657   1.372       .  A
S655        C656   1.719       .  A
C656        C657   1.386       .  A
C657        H663   1.083       .  S
S658        C659   1.724       .  A
C659        C660   1.382       .  A
C660        H664   1.083       .  S
C665        S671   1.712       .  A
C665        C670   1.387       .  A
C665        C666   1.404   1_545  A
C666        H677   1.082       .  S
C667        C676   1.373       .  A
C667        C668   1.387       .  A
C668        S674   1.709       .  A
C668        C669   1.402   1_565  A
C669        H678   1.082       .  S
C670        C673   1.370       .  A
S671        C672   1.724       .  A
C672        C673   1.386       .  A
C673        H679   1.083       .  S
S674        C675   1.722       .  A
C675        C676   1.389       .  A
C676        H680   1.083       .  S
C681        S687   1.700       .  A
C681        C686   1.388       .  A
C681        C682   1.397   1_545  A
C682        C683   1.398       .  A
C682        H693   1.083       .  S
C683        C692   1.365       .  A
C683        C684   1.387       .  A
C684        S690   1.707       .  A
C684        C685   1.401   1_565  A
C685        C686   1.402       .  A
C685        H694   1.083       .  S
C686        C689   1.370       .  A
S687        C688   1.720       .  A
C688        C689   1.385       .  A
C689        H695   1.083       .  S
S690        C691   1.722       .  A
C691        C692   1.383       .  A
C692        H696   1.083       .  S
C697        S703   1.709       .  A
C697        C702   1.387       .  A
C697        C698   1.403   1_655  A
C698        C699   1.404       .  A
C698        H709   1.082       .  S
C699        C708   1.373       .  A
C699        C700   1.387       .  A
C700        S706   1.711       .  A
C700        C701   1.404   1_455  A
C701        C702   1.405       .  A
C701        H710   1.082       .  S
C702        C705   1.374       .  A
S703        C704   1.723       .  A
C704        C705   1.388       .  A
C705        H711   1.083       .  S
S706        C707   1.724       .  A
C707        C708   1.388       .  A
C708        H712   1.083       .  S
C713        S719   1.699       .  A
C713        C718   1.388       .  A
C714        C715   1.397   1_455  A
C714        H725   1.083       .  S
C715        C724   1.363       .  A
C715        C716   1.387       .  A
C716        S722   1.707       .  A
C717        C718   1.402       .  A
C717        H726   1.083       .  S
C718        C721   1.369       .  A
S719        C720   1.719       .  A
C720        C721   1.384       .  A
C721        H727   1.083       .  S
S722        C723   1.723       .  A
C723        C724   1.382       .  A
C724        H728   1.083       .  S
C729        S735   1.705       .  A
C729        C734   1.387       .  A
C729        C730   1.401       .  A
C730        C731   1.402       .  A
C730        H741   1.082       .  S
C731        C740   1.370       .  A
C731        C732   1.387       .  A
C732        S738   1.705       .  A
C732        C733   1.401       .  A
C733        C734   1.401       .  A
C733        H742   1.082       .  S
C734        C737   1.369       .  A
S735        C736   1.722       .  A
C736        C737   1.386       .  A
C737        H743   1.083       .  S
S738        C739   1.722       .  A
C739        C740   1.386       .  A
C740        H744   1.083       .  S
C745        S751   1.706       .  A
C745        C750   1.387       .  A
C745        C746   1.404       .  A
C746        C747   1.403   1_545  A
C746        H757   1.083       .  S
C747        C756   1.375       .  A
C747        C748   1.387       .  A
C748        S754   1.706       .  A
C748        C749   1.404       .  A
C749        C750   1.403   1_565  A
C749        H758   1.082       .  S
C750        C753   1.376       .  A
S751        C752   1.724       .  A
C752        C753   1.387       .  A
C753        H759   1.083       .  S
S754        C755   1.723       .  A
C755        C756   1.387       .  A
C756        H760   1.083       .  S
C761        S767   1.703       .  A
C761        C766   1.387       .  A
C762        C763   1.400   1_554  A
C762        H773   1.083       .  S
C763        C772   1.368       .  A
C763        C764   1.387       .  A
C764        S770   1.705       .  A
C765        C766   1.401       .  A
C765        H774   1.083       .  S
C766        C769   1.370       .  A
S767        C768   1.722       .  A
C768        C769   1.385       .  A
C769        H775   1.083       .  S
S770        C771   1.722       .  A
C771        C772   1.384       .  A
C772        H776   1.083       .  S
C777        S783   1.704   1_554  A
C777        C782   1.388   1_554  A
C778        C779   1.401       .  A
C778        H789   1.083       .  S
C779        C788   1.370       .  A
C779        C780   1.388       .  A
C780        S786   1.703       .  A
C781        C782   1.400       .  A
C781        H790   1.083       .  S
C782        C785   1.369       .  A
S783        C784   1.722       .  A
C784        C785   1.383       .  A
C785        H791   1.083       .  S
S786        C787   1.722       .  A
C787        C788   1.384       .  A
C788        H792   1.083       .  S
C793        S799   1.710       .  A
C793        C798   1.387       .  A
C793        C794   1.405       .  A
C794        C795   1.405       .  A
C794        H805   1.083       .  S
C795        C804   1.374       .  A
C795        C796   1.387       .  A
C796        S802   1.703       .  A
C796        C797   1.400       .  A
C797        C798   1.400       .  A
C797        H806   1.083       .  S
C798        C801   1.369       .  A
S799        C800   1.724       .  A
C800        C801   1.385       .  A
C801        H807   1.083       .  S
S802        C803   1.721       .  A
C803        C804   1.388       .  A
C804        H808   1.083       .  S
C809        S815   1.709       .  A
C809        C814   1.387       .  A
C809        C810   1.402       .  A
C810        C811   1.403       .  A
C810        H821   1.083       .  S
C811        C820   1.369       .  A
C811        C812   1.387       .  A
C812        S818   1.710       .  A
C812        C813   1.401       .  A
C813        C814   1.403       .  A
C813        H822   1.083       .  S
C814        C817   1.370       .  A
S815        C816   1.723       .  A
C816        C817   1.387       .  A
C817        H823   1.083       .  S
S818        C819   1.722       .  A
C819        C820   1.388       .  A
C820        H824   1.083       .  S
C825        S831   1.710       .  A
C825        C830   1.387       .  A
C825        C826   1.402       .  A
C826        C827   1.403       .  A
C826        H837   1.082       .  S
C827        C836   1.370       .  A
C827        C828   1.387       .  A
C828        S834   1.710       .  A
C828        C829   1.402       .  A
C829        C830   1.404       .  A
C829        H838   1.082       .  S
C830        C833   1.370       .  A
S831        C832   1.722       .  A
C832        C833   1.388       .  A
C833        H839   1.083       .  S
S834        C835   1.723       .  A
C835        C836   1.388       .  A
C836        H840   1.083       .  S
