geometry optimzed in LAMMPS
_audit_creation_date              2020-12-01 
_audit_creation_method            'lammps2cif' 
_symmetry_space_group_name_H-M    'P1' 
_symmetry_Int_Tables_number       1 
_symmetry_cell_setting            triclinic 
loop_ 
_symmetry_equiv_pos_as_xyz 
  x,y,z 
_cell_length_a                    34.9628674 
_cell_length_b                    35.35314811934723 
_cell_length_c                    35.10700044988858 
_cell_angle_alpha                 89.32437066226679 
_cell_angle_beta                  89.75046286691574 
_cell_angle_gamma                 89.5255853406081 
loop_ 
_atom_site_label 
_atom_site_type_symbol 
_atom_site_fract_x 
_atom_site_fract_y 
_atom_site_fract_z 
_atom_site_charge 
O1          O  0.17903559  0.60159871  0.45659541    -0.86300
O2          O  0.22600337  0.64339974  0.49831664    -0.83400
C3          C  0.23852775  0.66300106  0.52488642     0.97100
O4          O  0.22487156  0.65914432  0.55849213    -0.83400
O5          O  0.14456147  0.67606701  0.55982079    -0.86000
C6          C  0.10911838  0.67290216  0.55303668     1.01700
O7          O  0.09590119  0.64049575  0.54597986    -0.78800
O8          O  0.12643642  0.63034426  0.47577065    -0.79000
C9          C  0.15068062  0.62331675  0.45043850     1.01600
O10         O  0.19241636  0.53750257  0.50738074    -0.86300
O11         O  0.24325593  0.58034874  0.54743597    -0.83400
C12         C  0.23686251  0.57497065  0.58252060     0.97200
O13         O  0.20797440  0.58942628  0.59862931    -0.83400
O14         O  0.13049701  0.60652240  0.60431069    -0.86000
C15         C  0.11340191  0.57576072  0.59623443     1.01600
O16         O  0.11525424  0.56276156  0.56311931    -0.78800
O17         O  0.13468202  0.55059467  0.48814860    -0.79000
C18         C  0.16229724  0.52733735  0.49108481     1.01600
Cr19       Cr  0.20724459  0.59181305  0.50489655     1.93700
Cr20       Cr  0.17641171  0.63131812  0.57712766     1.93200
Cr21       Cr  0.12170467  0.59670481  0.51958653     1.39100
O22         O  0.16880861  0.60673368  0.53406595    -1.24100
O23         O  0.16701009  0.58643645  0.29330784    -0.86300
O24         O  0.12059038  0.53715712  0.25982755    -0.83400
C25         C  0.10082664  0.52063533  0.23566846     0.97100
O26         O  0.10247628  0.53133072  0.20082969    -0.83400
O27         O  0.08658035  0.61266845  0.19347934    -0.86000
C28         C  0.09263378  0.64809162  0.19496236     1.01700
O29         O  0.12688076  0.65940747  0.19674720    -0.78800
O30         O  0.14137124  0.63862367  0.26890184    -0.79000
C31         C  0.14873709  0.61739344  0.29667671     1.01600
O32         O  0.22817590  0.56392122  0.24261124    -0.86300
O33         O  0.18098985  0.51277984  0.20859328    -0.83400
C34         C  0.18348556  0.51586918  0.17256832     0.97200
O35         O  0.16965480  0.54440641  0.15557874    -0.83400
O36         O  0.15247113  0.61970587  0.14265747    -0.86000
C37         C  0.18470294  0.63608815  0.14589157     1.01600
O38         O  0.20276262  0.63336016  0.17667928    -0.78800
O39         O  0.21978136  0.62390842  0.25348139    -0.79000
C40         C  0.24057463  0.59453753  0.25520243     1.01600
Cr41       Cr  0.17301660  0.55262388  0.24848843     1.93700
Cr42       Cr  0.12933752  0.57767815  0.17613842     1.93200
Cr43       Cr  0.17197561  0.63524615  0.22308800     1.39100
O44         O  0.15788909  0.58817687  0.21608270    -1.24100
O45         O  0.30450550  0.13492806  0.58370629    -0.86300
O46         O  0.26113476  0.09260294  0.54094745    -0.83400
C47         C  0.23377928  0.07660500  0.52560448     0.97100
O48         O  0.19975473  0.08311618  0.53775660    -0.83400
O49         O  0.19818934  0.06794589  0.61948510    -0.86000
C50         C  0.20456870  0.07254942  0.65475671     1.01700
O51         O  0.21121334  0.10561816  0.66613984    -0.78800
O52         O  0.28242268  0.10884451  0.63655344    -0.79000
C53         C  0.30903254  0.11461472  0.61342016     1.01600
O54         O  0.25632113  0.20004179  0.56549634    -0.86300
O55         O  0.21385795  0.15729471  0.51705873    -0.83400
C56         C  0.17938005  0.16662707  0.52402530     0.97200
O57         O  0.16351119  0.15502786  0.55431206    -0.83400
O58         O  0.15705432  0.14057892  0.63154931    -0.86000
C59         C  0.16738997  0.17156044  0.64716637     1.01600
O60         O  0.20088991  0.18311939  0.64258392    -0.78800
O61         O  0.27618218  0.18885028  0.62345228    -0.79000
C62         C  0.27294458  0.21087828  0.59496871     1.01600
Cr63       Cr  0.25673902  0.14553219  0.55420499     1.93700
Cr64       Cr  0.18242859  0.11251349  0.58626282     1.93200
Cr65       Cr  0.24154070  0.14589504  0.63896764     1.39100
O66         O  0.22668166  0.13472688  0.59283613    -1.24100
O67         O  0.46661680  0.15291924  0.60002725    -0.86300
O68         O  0.50060601  0.20262044  0.64494093    -0.83400
C69         C  0.52467970  0.21890368  0.66504846     0.97100
O70         O  0.55955192  0.20803076  0.66420099    -0.83400
O71         O  0.56431275  0.12784474  0.68229078    -0.86000
C72         C  0.56118837  0.09246599  0.67721521     1.01700
O73         O  0.56142404  0.08023437  0.64349682    -0.78800
O74         O  0.48994749  0.10127930  0.62760512    -0.79000
C75         C  0.46258490  0.12282734  0.61960250     1.01600
O76         O  0.51912026  0.17271113  0.53901371    -0.86300
O77         O  0.55295827  0.22446018  0.58555402    -0.83400
C78         C  0.58894745  0.22075346  0.58270103     0.97200
O79         O  0.60607667  0.19309776  0.59828248    -0.83400
O80         O  0.61712252  0.11764837  0.61798982    -0.86000
C81         C  0.61390717  0.10037346  0.58639358     1.01600
O82         O  0.58339391  0.10313724  0.56772417    -0.78800
O83         O  0.50630454  0.11343096  0.54961368    -0.79000
C84         C  0.50533113  0.14210926  0.52784913     1.01600
Cr85       Cr  0.51238855  0.18567915  0.59357866     1.93700
Cr86       Cr  0.58394456  0.16099228  0.63908916     1.93200
Cr87       Cr  0.53625340  0.10303104  0.59762876     1.39100
O88         O  0.54412519  0.15030089  0.61020183    -1.24100
O89         O  0.62040870  0.43480981  0.17325808    -0.86300
O90         O  0.65565101  0.48371047  0.21779220    -0.83400
C91         C  0.66754138  0.51316344  0.23278082     0.97100
O92         O  0.65742220  0.54542576  0.21929087    -0.83400
O93         O  0.67648293  0.54696662  0.13943434    -0.86000
C94         C  0.67497051  0.53862200  0.10446513     1.01700
O95         O  0.64299693  0.52908486  0.09094488    -0.78800
O96         O  0.64634874  0.45937746  0.12149320    -0.79000
C97         C  0.64236181  0.43240445  0.14437339     1.01600
O98         O  0.54845903  0.47547862  0.18710236    -0.86300
O99         O  0.58418270  0.52212617  0.23675355    -0.83400
C100        C  0.57121362  0.55473112  0.22797849     0.97200
O101        O  0.58231416  0.57145937  0.19811573    -0.83400
O102        O  0.59940663  0.57895370  0.12246554    -0.86000
C103        C  0.56921290  0.56503866  0.10774457     1.01600
O104        O  0.56293671  0.53043775  0.11155865    -0.78800
O105        O  0.56451552  0.45648106  0.13036509    -0.79000
C106        C  0.54010772  0.45871425  0.15697182     1.01600
Cr107      Cr  0.60278762  0.48103398  0.20138665     1.93700
Cr108      Cr  0.62850222  0.55783781  0.16927898     1.93200
Cr109      Cr  0.60467422  0.49511921  0.11664658     1.39100
O110        O  0.61211533  0.51144696  0.16281865    -1.24100
O111        O  0.60210131  0.28328970  0.14698607    -0.86300
O112        O  0.55080981  0.24625646  0.10457073    -0.83400
C113        C  0.53131207  0.22094777  0.08973756     0.97100
O114        O  0.53976144  0.18639345  0.09648621    -0.83400
O115        O  0.61952692  0.17706105  0.07864405    -0.86000
C116        C  0.65542174  0.18081271  0.08165214     1.01700
O117        O  0.66959710  0.18160772  0.11484370    -0.78800
O118        O  0.65254716  0.25472142  0.12254189    -0.79000
C119        C  0.63371315  0.28398012  0.12907313     1.01600
O120        O  0.57814178  0.24053684  0.21293078    -0.86300
O121        O  0.52401484  0.20367841  0.17138973    -0.83400
C122        C  0.52615024  0.16840566  0.17890948     0.97200
O123        O  0.55379811  0.14859164  0.16692624    -0.83400
O124        O  0.62902627  0.13131104  0.15028438    -0.86000
C125        C  0.64427410  0.13788996  0.18265028     1.01600
O126        O  0.64634864  0.17120877  0.19412166    -0.78800
O127        O  0.63938856  0.24759613  0.20301027    -0.79000
C128        C  0.61015863  0.25162189  0.22412516     1.01600
Cr129      Cr  0.56596332  0.24086389  0.15800329     1.93700
Cr130      Cr  0.58680958  0.16362084  0.12404233     1.93200
Cr131      Cr  0.64849055  0.21290303  0.15804634     1.39100
O132        O  0.60002534  0.20576872  0.14702193    -1.24100
O133        O  0.69391627  0.86519731  0.53300673    -0.86300
O134        O  0.74512352  0.86825454  0.47122785    -0.83400
C135        C  0.73927071  0.83373265  0.46984543     0.97100
O136        O  0.70777394  0.82341575  0.45580318    -0.83400
O137        O  0.63104813  0.82551369  0.43416883    -0.86000
C138        C  0.60328697  0.82370500  0.45746204     1.01700
O139        O  0.59733500  0.85022936  0.48073403    -0.78800
O140        O  0.63472159  0.88740394  0.53764407    -0.79000
C141        C  0.66256915  0.86801733  0.55088075     1.01600
O142        O  0.68407062  0.94296850  0.52571494    -0.86300
O143        O  0.72020226  0.93971749  0.45402825    -0.83400
C144        C  0.72960245  0.92784760  0.42134035     0.97200
O145        O  0.71879399  0.89546092  0.40961483    -0.83400
O146        O  0.64178500  0.89588669  0.39251759    -0.86000
C147        C  0.61263918  0.91572161  0.40126395     1.01600
O148        O  0.60035255  0.91752831  0.43493405    -0.78800
O149        O  0.63538491  0.95662981  0.49051303    -0.79000
C150        C  0.65937642  0.96642028  0.51508481     1.01600
Cr151      Cr  0.70718260  0.90284007  0.49380700     1.93700
Cr152      Cr  0.67446481  0.86180586  0.42601721     1.93200
Cr153      Cr  0.62065696  0.90187054  0.48461799     1.39100
O154        O  0.66651779  0.88891282  0.46744187    -1.24100
O155        O  0.65939339  0.89859939  0.71142024    -0.86300
O156        O  0.60772909  0.94487893  0.74502152    -0.83400
C157        C  0.58811375  0.96226229  0.76910518     0.97100
O158        O  0.59006646  0.95226771  0.80402448    -0.83400
O159        O  0.57345277  0.87138919  0.80778024    -0.86000
C160        C  0.57946649  0.83594503  0.80425793     1.01700
O161        O  0.61375468  0.82383111  0.80320158    -0.78800
O162        O  0.63437783  0.84527851  0.73230637    -0.79000
C163        C  0.64483712  0.86646850  0.70556461     1.01600
O164        O  0.71571024  0.92159828  0.76528337    -0.86300
O165        O  0.66545161  0.97031896  0.79848665    -0.83400
C166        C  0.67142451  0.96427773  0.83368204     0.97200
O167        O  0.65598761  0.93633877  0.85035585    -0.83400
O168        O  0.63615227  0.86120404  0.86089242    -0.86000
C169        C  0.66880863  0.84514026  0.85871295     1.01600
O170        O  0.68835643  0.84851200  0.82885366    -0.78800
O171        O  0.71099418  0.86121880  0.75425207    -0.79000
C172        C  0.73028630  0.89142574  0.75335735     1.01600
Cr173      Cr  0.66059710  0.93136333  0.75734354     1.93700
Cr174      Cr  0.61547546  0.90478069  0.82790575     1.93200
Cr175      Cr  0.66093052  0.84814037  0.78064320     1.39100
O176        O  0.64546469  0.89488265  0.78836238    -1.24100
O177        O  0.21098883  0.84765401  0.08358114    -0.86300
O178        O  0.25205471  0.89189268  0.03751886    -0.83400
C179        C  0.27891710  0.90973317  0.02234954     0.97100
O180        O  0.31306158  0.90508740  0.03484754    -0.83400
O181        O  0.31672710  0.92096381  0.11596930    -0.86000
C182        C  0.31014355  0.91644929  0.15140766     1.01700
O183        O  0.30252533  0.88351850  0.16371590    -0.78800
O184        O  0.23129848  0.87610485  0.13482829    -0.79000
C185        C  0.20564491  0.87019160  0.11091966     1.01600
O186        O  0.26255860  0.78537821  0.06706136    -0.86300
O187        O  0.30095040  0.82994813  0.01652699    -0.83400
C188        C  0.33504255  0.82027234  0.02349691     0.97200
O189        O  0.35185060  0.83357623  0.05213565    -0.83400
O190        O  0.35970223  0.85002009  0.12855200    -0.86000
C191        C  0.35102563  0.81895581  0.14551995     1.01600
O192        O  0.31755093  0.80657149  0.14335228    -0.78800
O193        O  0.24282337  0.79572120  0.12503440    -0.79000
C194        C  0.24742188  0.77352501  0.09728766     1.01600
Cr195      Cr  0.25889948  0.83962076  0.05388090     1.93700
Cr196      Cr  0.33237153  0.87632897  0.08330981     1.93200
Cr197      Cr  0.27458404  0.84128156  0.13842155     1.39100
O198        O  0.28875914  0.85273718  0.09165778    -1.24100
O199        O  0.04754896  0.84515549  0.08787821    -0.86300
O200        O  0.01930230  0.79682987  0.14113388    -0.83400
C201        C  0.99714326  0.77803885  0.16188721     0.97100
O202        O  0.96161955  0.78656077  0.16221767    -0.83400
O203        O  0.95434908  0.86769692  0.17819287    -0.86000
C204        C  0.95523496  0.90320168  0.17127951     1.01700
O205        O  0.95316044  0.91481529  0.13697542    -0.78800
O206        O  0.02400028  0.89746502  0.11278938    -0.79000
C207        C  0.05173652  0.87701318  0.10345948     1.01600
O208        O  0.99175036  0.81875412  0.03495978    -0.86300
O209        O  0.96387365  0.76874766  0.08729107    -0.83400
C210        C  0.92798736  0.77255596  0.08360873     0.97200
O211        O  0.91059741  0.79963713  0.09954481    -0.83400
O212        O  0.89704405  0.87428314  0.11897156    -0.86000
C213        C  0.89640092  0.88961225  0.08594119     1.01600
O214        O  0.92503838  0.88678329  0.06460863    -0.78800
O215        O  0.99887749  0.87979807  0.03860601    -0.79000
C216        C  0.00066599  0.84966390  0.01968596     1.01600
Cr217      Cr  0.00321459  0.80980577  0.08923750     1.93700
Cr218      Cr  0.93363176  0.83267614  0.13805055     1.93200
Cr219      Cr  0.97455208  0.89136462  0.08921229     1.39100
O220        O  0.97091015  0.84449701  0.10580331    -1.24100
O221        O  0.42069135  0.95497414  0.33990425    -0.86300
O222        O  0.36828949  0.98787596  0.29402466    -0.83400
C223        C  0.34690277  0.01135855  0.27761162     0.97100
O224        O  0.34740024  0.04603821  0.28778252    -0.83400
O225        O  0.32944339  0.04857912  0.36763679    -0.86000
C226        C  0.33323997  0.04420522  0.40327200     1.01700
O227        O  0.36667397  0.04000488  0.41707442    -0.78800
O228        O  0.39007199  0.97122193  0.39204462    -0.79000
C229        C  0.40409930  0.94643986  0.37091978     1.01600
O230        O  0.47408324  0.01258451  0.31965637    -0.86300
O231        O  0.42265463  0.04453937  0.26952861    -0.83400
C232        C  0.42550557  0.07983259  0.27463184     0.97200
O233        O  0.41167229  0.09442901  0.30433342    -0.83400
O234        O  0.39195373  0.10113841  0.38104513    -0.86000
C235        C  0.42399631  0.09755741  0.39833042     1.01600
O236        O  0.44273009  0.06742226  0.39569850    -0.78800
O237        O  0.46705939  0.99590285  0.37942375    -0.79000
C238        C  0.48775434  0.99845398  0.34968995     1.01600
Cr239      Cr  0.41991554  0.00223150  0.30832581     1.93700
Cr240      Cr  0.37195005  0.06977398  0.33582155     1.93200
Cr241      Cr  0.41564719  0.01981379  0.39271644     1.39100
O242        O  0.40231364  0.03055029  0.34552508    -1.24100
O243        O  0.45225298  0.77283386  0.37189037    -0.86300
O244        O  0.49956214  0.71048998  0.37963346    -0.83400
C245        C  0.49238363  0.71239628  0.41457829     0.97100
O246        O  0.46162247  0.69729678  0.42647437    -0.83400
O247        O  0.38445308  0.67436851  0.42584404    -0.86000
C248        C  0.36199018  0.70213584  0.43095079     1.01700
O249        O  0.36035977  0.72836641  0.40624705    -0.78800
O250        O  0.39208717  0.77691994  0.35402690    -0.79000
C251        C  0.42118854  0.79105693  0.36952170     1.01600
O252        O  0.43681324  0.75313022  0.29617565    -0.86300
O253        O  0.47290316  0.68336687  0.30926720    -0.83400
C254        C  0.48188797  0.65211899  0.32493815     0.97200
O255        O  0.47434348  0.64628242  0.35999557    -0.83400
O256        O  0.39719200  0.63262717  0.35653723    -0.86000
C257        C  0.36425948  0.64118950  0.34369866     1.01600
O258        O  0.35041373  0.67401179  0.34728427    -0.78800
O259        O  0.38323227  0.72245248  0.29482019    -0.79000
C260        C  0.40751258  0.74334135  0.27835318     1.01600
Cr261      Cr  0.46223618  0.72811917  0.34064673     1.93700
Cr262      Cr  0.42911089  0.66554114  0.39049532     1.93200
Cr263      Cr  0.37528220  0.72386457  0.35133765     1.39100
O264        O  0.42159103  0.70555312  0.36072010    -1.24100
O265        O  0.53631248  0.66537709  0.88650051    -0.86300
O266        O  0.48030437  0.72055202  0.87856508    -0.83400
C267        C  0.47434618  0.71858296  0.84338685     0.97100
O268        O  0.45546393  0.69081771  0.83029998    -0.83400
O269        O  0.42693434  0.61426073  0.82835895    -0.86000
C270        C  0.45422018  0.59124482  0.82108873     1.01700
O271        O  0.48278420  0.58984608  0.84279641    -0.78800
O272        O  0.53088936  0.60500302  0.90130381    -0.79000
C273        C  0.55085631  0.63313710  0.89245832     1.01600
O274        O  0.50717739  0.64736775  0.95927027    -0.86300
O275        O  0.44674900  0.69502260  0.94730470    -0.83400
C276        C  0.41837781  0.71118401  0.93220513     0.97200
O277        O  0.40896196  0.70353076  0.89822812    -0.83400
O278        O  0.38834072  0.62757041  0.90161096    -0.86000
C279        C  0.39375318  0.59253326  0.90824022     1.01600
O280        O  0.42326542  0.57643881  0.89569547    -0.78800
O281        O  0.47084561  0.59787766  0.95479899    -0.79000
C282        C  0.49263918  0.61839112  0.97428449     1.01600
Cr283      Cr  0.49037554  0.67929899  0.91588353     1.93700
Cr284      Cr  0.42263427  0.65804042  0.86599092     1.93200
Cr285      Cr  0.47586535  0.59609245  0.89815016     1.39100
O286        O  0.46309785  0.64446318  0.89299483    -1.24100
O287        O  0.72236735  0.61667430  0.95639892    -0.86300
O288        O  0.78582925  0.61629000  0.00336013    -0.83400
C289        C  0.78810828  0.58186491  0.99611791     0.97100
O290        O  0.80462959  0.57238832  0.96543431    -0.83400
O291        O  0.82786753  0.57753565  0.88864430    -0.86000
C292        C  0.80210650  0.57123167  0.86428170     1.01700
O293        O  0.77227913  0.59159559  0.86341765    -0.78800
O294        O  0.71735860  0.63597411  0.89660269    -0.79000
C295        C  0.70384102  0.61951018  0.92578466     1.01600
O296        O  0.73297262  0.69382867  0.94186166    -0.86300
O297        O  0.80353714  0.68904936  0.97809544    -0.83400
C298        C  0.83586753  0.67675265  0.98857812     0.97200
O299        O  0.84769002  0.64409685  0.97847518    -0.83400
O300        O  0.86289295  0.64861509  0.90082095    -0.86000
C301        C  0.85305646  0.66015512  0.86784614     1.01600
O302        O  0.81958004  0.65613448  0.85562498    -0.78800
O303        O  0.76563219  0.70139732  0.88951542    -0.79000
C304        C  0.74223947  0.71401001  0.91380787     1.01600
Cr305      Cr  0.76327861  0.65273733  0.96663364     1.93700
Cr306      Cr  0.83259263  0.61210202  0.93330141     1.93200
Cr307      Cr  0.77020326  0.64565267  0.88005632     1.39100
O308        O  0.78910315  0.63698658  0.92598645    -1.24100
O309        O  0.33947842  0.39415891  0.96054389    -0.86300
O310        O  0.29116968  0.34887226  0.99657194    -0.83400
C311        C  0.27569815  0.32837322  0.02127408     0.97100
O312        O  0.28704326  0.32978665  0.05571454    -0.83400
O313        O  0.36787889  0.31149708  0.05772291    -0.86000
C314        C  0.40379080  0.31566129  0.05429842     1.01700
O315        O  0.41720378  0.34877742  0.05039588    -0.78800
O316        O  0.39282500  0.36679361  0.98009558    -0.79000
C317        C  0.36936276  0.37468727  0.95438105     1.01600
O318        O  0.32160317  0.45426089  0.01296616    -0.86300
O319        O  0.27044704  0.40754150  0.05018147    -0.83400
C320        C  0.27585013  0.41025348  0.08580031     0.97200
O321        O  0.30469706  0.39489283  0.10107601    -0.83400
O322        O  0.38072524  0.37415579  0.10811507    -0.86000
C323        C  0.39866638  0.40524250  0.10426691     1.01600
O324        O  0.39570502  0.42440785  0.07399962    -0.78800
O325        O  0.38134916  0.44464024  0.99784536    -0.79000
C326        C  0.35203442  0.46600915  0.99793947     1.01600
Cr327      Cr  0.30836698  0.40000628  0.00758938     1.93700
Cr328      Cr  0.33561043  0.35434586  0.07766130     1.93200
Cr329      Cr  0.39320087  0.39563689  0.02673624     1.39100
O330        O  0.34548471  0.38325226  0.03727934    -1.24100
O331        O  0.34039919  0.40087300  0.79364409    -0.86300
O332        O  0.38772980  0.44932981  0.75852342    -0.83400
C333        C  0.40926439  0.46415197  0.73413715     0.97100
O334        O  0.40856852  0.45306380  0.69979316    -0.83400
O335        O  0.42601133  0.37334344  0.69759448    -0.86000
C336        C  0.42122449  0.33791308  0.70139601     1.01700
O337        O  0.38739130  0.32527566  0.70277358    -0.78800
O338        O  0.36914062  0.34907350  0.77333002    -0.79000
C339        C  0.35989480  0.37099971  0.79956352     1.01600
O340        O  0.28147844  0.41990953  0.73886047    -0.86300
O341        O  0.32942386  0.47107127  0.70429733    -0.83400
C342        C  0.32740988  0.46654518  0.66857744     0.97200
O343        O  0.34358737  0.43859204  0.65313151    -0.83400
O344        O  0.36238237  0.36306331  0.64528503    -0.86000
C345        C  0.33016798  0.34657417  0.64838723     1.01600
O346        O  0.31145567  0.34827445  0.67898114    -0.78800
O347        O  0.29126638  0.36097207  0.75465680    -0.79000
C348        C  0.26973999  0.38992088  0.75421968     1.01600
Cr349      Cr  0.33607383  0.43269015  0.74637025     1.93700
Cr350      Cr  0.38335005  0.40635454  0.67690281     1.93200
Cr351      Cr  0.34043931  0.34933343  0.72630900     1.39100
O352        O  0.35341173  0.39647343  0.71656422    -1.24100
O353        O  0.06070984  0.21350311  0.86652043    -0.86300
O354        O  0.01047225  0.27387925  0.87585486    -0.83400
C355        C  0.01530780  0.27339647  0.91126237     0.97100
O356        O  0.04501072  0.28940540  0.92444904    -0.83400
O357        O  0.12315983  0.31495458  0.92631824    -0.86000
C358        C  0.14651822  0.28777748  0.93177446     1.01700
O359        O  0.14724918  0.26069431  0.90867283    -0.78800
O360        O  0.12231812  0.21412701  0.85244728    -0.79000
C361        C  0.09235509  0.19673951  0.86179833     1.01600
O362        O  0.07952925  0.24047069  0.79375438    -0.86300
O363        O  0.03899945  0.30630339  0.80756182    -0.83400
C364        C  0.02770062  0.33622731  0.82341114     0.97200
O365        O  0.03365880  0.34122673  0.85866362    -0.83400
O366        O  0.11127609  0.35734187  0.85639878    -0.86000
C367        C  0.14578011  0.35002254  0.84715041     1.01600
O368        O  0.16012858  0.31780493  0.85325508    -0.78800
O369        O  0.13302637  0.27147849  0.79633370    -0.79000
C370        C  0.11040751  0.25043910  0.77840506     1.01600
Cr371      Cr  0.05050399  0.26062118  0.83780532     1.93700
Cr372      Cr  0.07878716  0.32281126  0.88984064     1.93200
Cr373      Cr  0.13665580  0.26747492  0.85333763     1.39100
O374        O  0.08904908  0.28368168  0.86042836    -1.24100
O375        O  0.12178247  0.02525845  0.80972073    -0.86300
O376        O  0.12650372  0.96267543  0.76290491    -0.83400
C377        C  0.16198362  0.96182760  0.76766110     0.97100
O378        O  0.17508989  0.94658768  0.79797453    -0.83400
O379        O  0.17645681  0.92244893  0.87627411    -0.86000
C380        C  0.18238927  0.94987905  0.89859790     1.01700
O381        O  0.15994826  0.97790476  0.89793481    -0.78800
O382        O  0.10649743  0.02726549  0.87090331    -0.79000
C383        C  0.11781305  0.04300416  0.84045336     1.01600
O384        O  0.04723512  0.00531061  0.82990918    -0.86300
O385        O  0.05685515  0.93748243  0.79400170    -0.83400
C386        C  0.07083783  0.90673456  0.78246432     0.97200
O387        O  0.10600136  0.89879188  0.78823436    -0.83400
O388        O  0.10432149  0.88417702  0.86445628    -0.86000
C389        C  0.09313231  0.89251106  0.89764200     1.01600
O390        O  0.10168918  0.92359755  0.91239305    -0.78800
O391        O  0.04713477  0.97287529  0.88266022    -0.79000
C392        C  0.02981147  0.99433373  0.85917304     1.01600
Cr393      Cr  0.08989566  0.98069290  0.80206178     1.93700
Cr394      Cr  0.13926481  0.91584280  0.83217901     1.93200
Cr395      Cr  0.10441382  0.97400667  0.88749326     1.39100
O396        O  0.11149636  0.95684508  0.84104811    -1.24100
O397        O  0.93363141  0.70781331  0.62817074    -0.86300
O398        O  0.98878248  0.76485326  0.63470214    -0.83400
C399        C  0.98746571  0.77046546  0.59976258     0.97100
O400        O  0.95683574  0.78468647  0.58623882    -0.83400
O401        O  0.87870780  0.80690102  0.58211381    -0.86000
C402        C  0.84867649  0.78683406  0.58168446     1.01700
O403        O  0.84065434  0.76572576  0.60972233    -0.78800
O404        O  0.87360128  0.70736458  0.64820709    -0.79000
C405        C  0.90030149  0.69396348  0.62763005     1.01600
O406        O  0.92038802  0.71475124  0.70605919    -0.86300
O407        O  0.96030318  0.78420313  0.70370350    -0.83400
C408        C  0.97030106  0.81672505  0.69160028     0.97200
O409        O  0.96190122  0.82860444  0.65804447    -0.83400
O410        O  0.88596349  0.84966163  0.65216960    -0.86000
C411        C  0.85667937  0.84264722  0.67257645     1.01600
O412        O  0.84372248  0.80990067  0.67629700    -0.78800
O413        O  0.87434014  0.75357565  0.71737979    -0.79000
C414        C  0.89575932  0.72711046  0.72860836     1.01600
Cr415      Cr  0.94719868  0.74529919  0.66663518     1.93700
Cr416      Cr  0.92003125  0.81437364  0.62144893     1.93200
Cr417      Cr  0.86199186  0.76015831  0.66189043     1.39100
O418        O  0.90899449  0.77408619  0.64975204    -1.24100
O419        O  0.90508858  0.54329270  0.65435255    -0.86300
O420        O  0.85765401  0.50984497  0.70445963    -0.83400
C421        C  0.84314902  0.48707209  0.72755982     0.97100
O422        O  0.84560434  0.45177139  0.71999378    -0.83400
O423        O  0.82625149  0.44195843  0.63910270    -0.86000
C424        C  0.83085426  0.44376791  0.60313763     1.01700
O425        O  0.86465410  0.44428217  0.58964482    -0.78800
O426        O  0.87929520  0.51693267  0.60418087    -0.79000
C427        C  0.88792558  0.54551989  0.62262756     1.01600
O428        O  0.96625085  0.49486944  0.68041670    -0.86300
O429        O  0.92043411  0.46174079  0.73340815    -0.83400
C430        C  0.92789755  0.42683468  0.73021668     0.97200
O431        O  0.91348705  0.40777526  0.70391446    -0.83400
O432        O  0.89372270  0.39191716  0.63031375    -0.86000
C433        C  0.92678451  0.39557842  0.61481931     1.01600
O434        O  0.94259228  0.42717086  0.61461260    -0.78800
O435        O  0.95831935  0.50244047  0.61914367    -0.79000
C436        C  0.97898526  0.50511193  0.64852734     1.01600
Cr437      Cr  0.91110306  0.50015679  0.69120943     1.93700
Cr438      Cr  0.87069457  0.42608036  0.67235407     1.93200
Cr439      Cr  0.91044539  0.47189240  0.61017396     1.39100
O440        O  0.89736609  0.46622307  0.65808229    -1.24100
O441        O  0.96429150  0.33842766  0.41488356    -0.86300
O442        O  0.99743056  0.29086516  0.36657188    -0.83400
C443        C  0.02096361  0.27389734  0.34597420     0.97100
O444        O  0.05635483  0.28268752  0.34771932    -0.83400
O445        O  0.06204665  0.36283784  0.32962469    -0.86000
C446        C  0.05834272  0.39833984  0.33415081     1.01700
O447        O  0.05622516  0.41124583  0.36768982    -0.78800
O448        O  0.98583969  0.39021966  0.38736786    -0.79000
C449        C  0.95898233  0.36895492  0.39646903     1.01600
O450        O  0.01803507  0.31623640  0.47289953    -0.86300
O451        O  0.05146547  0.26510770  0.42438912    -0.83400
C452        C  0.08728241  0.26880900  0.42855254     0.97200
O453        O  0.10418493  0.29676404  0.41337484    -0.83400
O454        O  0.11466399  0.37326542  0.39268743    -0.86000
C455        C  0.11157528  0.39186713  0.42365102     1.01600
O456        O  0.08157013  0.38910958  0.44328355    -0.78800
O457        O  0.00566654  0.37640841  0.46491998    -0.79000
C458        C  0.00475159  0.34673352  0.48552276     1.01600
Cr459      Cr  0.01045022  0.30518404  0.41841976     1.93700
Cr460      Cr  0.08152228  0.32952122  0.37268770     1.93200
Cr461      Cr  0.03335969  0.38813346  0.41522614     1.39100
O462        O  0.04182647  0.34076519  0.40214985    -1.24100
O463        O  0.79729629  0.34398117  0.42105832    -0.86300
O464        O  0.75703961  0.38845301  0.46759769    -0.83400
C465        C  0.73073605  0.40652154  0.48352719     0.97100
O466        O  0.69631881  0.40314045  0.47178065    -0.83400
O467        O  0.69423995  0.42345491  0.39273587    -0.86000
C468        C  0.70037527  0.42132746  0.35728918     1.01700
O469        O  0.70701944  0.38924221  0.34262373    -0.78800
O470        O  0.77754464  0.37511781  0.37011855    -0.79000
C471        C  0.80352608  0.36551842  0.39265364     1.01600
O472        O  0.74418793  0.28346490  0.43657543    -0.86300
O473        O  0.70604508  0.32796122  0.48755325    -0.83400
C474        C  0.67112623  0.32160451  0.48090657     0.97200
O475        O  0.65574570  0.33498501  0.45129806    -0.83400
O476        O  0.64860914  0.35650586  0.37559675    -0.86000
C477        C  0.65607488  0.32578747  0.35793370     1.01600
O478        O  0.68869950  0.31103115  0.36019376    -0.78800
O479        O  0.76318368  0.29557134  0.37847045    -0.79000
C480        C  0.76035946  0.27282916  0.40655528     1.01600
Cr481      Cr  0.74886788  0.33708402  0.45059864     1.93700
Cr482      Cr  0.67658411  0.37815682  0.42229916     1.93200
Cr483      Cr  0.73292204  0.34329665  0.36607061     1.39100
O484        O  0.71939702  0.35302245  0.41316315    -1.24100
O485        O  0.83761938  0.08552002  0.21434392    -0.86300
O486        O  0.89509108  0.04260891  0.24541243    -0.83400
C487        C  0.91662427  0.02591054  0.26872517     0.97100
O488        O  0.91545653  0.03531629  0.30378030    -0.83400
O489        O  0.92935501  0.11556575  0.30774902    -0.86000
C490        C  0.92302688  0.15085503  0.30422768     1.01700
O491        O  0.88863680  0.16260500  0.30007417    -0.78800
O492        O  0.86364258  0.13919642  0.23071421    -0.79000
C493        C  0.84987112  0.11814520  0.20591446     1.01600
O494        O  0.78769864  0.06041553  0.27323737    -0.86300
O495        O  0.84304680  0.01392027  0.30232373    -0.83400
C496        C  0.83702576  0.01941591  0.33737605     0.97200
O497        O  0.84987552  0.04857219  0.35309222    -0.83400
O498        O  0.86794676  0.12464945  0.36191211    -0.86000
C499        C  0.83522617  0.14071523  0.36009886     1.01600
O500        O  0.81516514  0.13690277  0.33100351    -0.78800
O501        O  0.78902228  0.12094766  0.25975265    -0.79000
C502        C  0.77099714  0.08988341  0.26161370     1.01600
Cr503      Cr  0.84240212  0.05326883  0.26094422     1.93700
Cr504      Cr  0.88877413  0.08140552  0.32886606     1.93200
Cr505      Cr  0.84041884  0.13667991  0.28137479     1.39100
O506        O  0.85760168  0.09054172  0.29006096    -1.24100
O507        O  0.79787422  0.12292504  0.03237409    -0.86300
O508        O  0.75700119  0.11574124  0.96454104    -0.83400
C509        C  0.76178323  0.15047151  0.96329624     0.97100
O510        O  0.79354188  0.16196326  0.94991831    -0.83400
O511        O  0.87302116  0.16134342  0.93197626    -0.86000
C512        C  0.89693365  0.16805279  0.95811263     1.01700
O513        O  0.89850411  0.14675940  0.98717508    -0.78800
O514        O  0.85871020  0.10929385  0.04341042    -0.79000
C515        C  0.82728098  0.12466933  0.05302396     1.01600
O516        O  0.81489821  0.04594263  0.02960151    -0.86300
O517        O  0.78659976  0.04429323  0.95477263    -0.83400
C518        C  0.77858227  0.05433522  0.92095643     0.97200
O519        O  0.78863387  0.08703736  0.90856675    -0.83400
O520        O  0.86706538  0.08607825  0.90045099    -0.86000
C521        C  0.89716279  0.07092692  0.91443454     1.01600
O522        O  0.90746059  0.07698242  0.94813605    -0.78800
O523        O  0.87092259  0.03905592  0.00406128    -0.79000
C524        C  0.84453628  0.02663075  0.02493712     1.01600
Cr525      Cr  0.79281641  0.08359618  0.99350999     1.93700
Cr526      Cr  0.83062091  0.12291566  0.92591360     1.93200
Cr527      Cr  0.88003461  0.09369621  0.99381882     1.39100
O528        O  0.83541259  0.09989375  0.97075079    -1.24100
C529        C  0.82558221  0.14068423  0.09112702    -0.07100
C530        C  0.86048820  0.15399897  0.10561234    -0.18200
C531        C  0.86966197  0.14833278  0.14385077     0.10100
C532        C  0.84174935  0.13298410  0.16813799    -0.07000
C533        C  0.80438274  0.12814608  0.15514801    -0.18300
C534        C  0.79608214  0.13035461  0.11666777     0.10100
S535        S  0.91828827  0.15623549  0.15848047    -0.33200
S536        S  0.75069524  0.11117458  0.10265216    -0.33200
H537        H  0.74493280  0.13635630  0.07246233     0.28100
H538        H  0.92101898  0.12415199  0.18241710     0.28100
H539        H  0.88295058  0.16281299  0.08614480     0.18700
H540        H  0.78236840  0.11894483  0.17477006     0.18700
C541        C  0.78089216  0.23612490  0.40563054    -0.07100
C542        C  0.82050090  0.23689227  0.39914532    -0.18200
C543        C  0.84114719  0.20375370  0.39090234     0.10100
C544        C  0.82149073  0.16924012  0.38756426    -0.07000
C545        C  0.78264349  0.16796313  0.39819363    -0.18300
C546        C  0.76240369  0.20085184  0.40813356     0.10100
S547        S  0.89170835  0.20669456  0.38089918    -0.33200
S548        S  0.71235038  0.19634997  0.41930758    -0.33200
H549        H  0.71235402  0.22264979  0.44896189     0.28100
H550        H  0.89428393  0.24639561  0.38100532     0.28100
H551        H  0.83494760  0.26387360  0.39897694     0.18700
H552        H  0.76721197  0.14165311  0.39569541     0.18700
C553        C  0.95481914  0.17971766  0.30729261    -0.07100
C554        C  0.94835240  0.21647106  0.29247652    -0.18200
C555        C  0.97297049  0.24679478  0.30021834     0.10100
C556        C  0.00530484  0.24141447  0.32388061    -0.07000
C557        C  0.01347730  0.20429944  0.33653982    -0.18300
C558        C  0.98916532  0.17363030  0.32824203     0.10100
S559        S  0.96011645  0.29271322  0.28113442    -0.33200
S560        S  0.00165182  0.12841722  0.34887882    -0.33200
H561        H  0.00065711  0.10985081  0.31366319     0.28100
H562        H  0.99707147  0.30801400  0.28301864     0.28100
H563        H  0.92288944  0.22216165  0.27582678     0.18700
H564        H  0.03737838  0.19958424  0.35560839     0.18700
C565        C  0.92063777  0.38000961  0.38714976    -0.07100
C566        C  0.90304893  0.36010918  0.35808819    -0.18200
C567        C  0.86354653  0.35856758  0.35638316     0.10100
C568        C  0.84202859  0.37695556  0.38474560    -0.07000
C569        C  0.85958856  0.40012435  0.41132409    -0.18300
C570        C  0.89912433  0.40227221  0.41249460     0.10100
S571        S  0.84271274  0.32763953  0.32182556    -0.33200
S572        S  0.92033046  0.42918830  0.45016685    -0.33200
H573        H  0.95372996  0.43848241  0.42986231     0.28100
H574        H  0.81207589  0.35207544  0.31289514     0.28100
H575        H  0.92008955  0.34295538  0.33892069     0.18700
H576        H  0.84260851  0.41413316  0.43300745     0.18700
C577        C  0.79771346  0.44304474  0.57579202    -0.07100
C578        C  0.76581194  0.42004970  0.58335571    -0.18200
C579        C  0.73849040  0.41247768  0.55489102     0.10100
C580        C  0.74265703  0.42816266  0.51772682    -0.07000
C581        C  0.77192920  0.45453935  0.51177526    -0.18300
C582        C  0.79936306  0.46201406  0.53992805     0.10100
S583        S  0.70156020  0.37895674  0.56636079    -0.33200
S584        S  0.83709949  0.49504177  0.52875836    -0.33200
H585        H  0.82977375  0.49872620  0.48952245     0.28100
H586        H  0.67483610  0.39392844  0.54035542     0.28100
H587        H  0.76352821  0.40570443  0.61071397     0.18700
H588        H  0.77544496  0.46660315  0.48348367     0.18700
C589        C  0.94559040  0.36682822  0.59062203    -0.07100
C590        C  0.92527979  0.35378464  0.55920099    -0.18200
C591        C  0.94444508  0.34344809  0.52564301     0.10100
C592        C  0.98471380  0.34740027  0.52281463    -0.07000
C593        C  0.00523802  0.35619506  0.55556394    -0.18300
C594        C  0.98612069  0.36479436  0.58959114     0.10100
S595        S  0.91561547  0.32777794  0.48670260    -0.33200
S596        S  0.01461915  0.37647046  0.63026854    -0.33200
H597        H  0.98639265  0.36474535  0.65640907     0.28100
H598        H  0.94218337  0.30010610  0.47506982     0.28100
H599        H  0.89427753  0.35504737  0.55940272     0.18700
H600        H  0.03615661  0.35802034  0.55422498     0.18700
C601        C  0.89229949  0.65904387  0.60718971    -0.07100
C602        C  0.85575894  0.64321222  0.61267936    -0.18200
C603        C  0.85130166  0.60431537  0.61238490     0.10100
C604        C  0.88352348  0.58193749  0.60488483    -0.07000
C605        C  0.91698003  0.59794433  0.59030928    -0.18300
C606        C  0.92161535  0.63680814  0.59086258     0.10100
S607        S  0.80628955  0.58479361  0.62793078    -0.33200
S608        S  0.96656260  0.65525475  0.57429659    -0.33200
H609        H  0.94985043  0.68897726  0.56039736     0.28100
H610        H  0.81165905  0.54939404  0.61076894     0.28100
H611        H  0.83186585  0.66036950  0.62230259     0.18700
H612        H  0.94114113  0.58002894  0.58284208     0.18700
C613        C  0.04601683  0.88237296  0.75950498    -0.07100
C614        C  0.01692559  0.90029306  0.73822069    -0.18200
C615        C  0.99157829  0.87966891  0.71614331     0.10100
C616        C  0.99507699  0.83993710  0.71544705    -0.07000
C617        C  0.02413389  0.82188267  0.73652762    -0.18300
C618        C  0.04957747  0.84259464  0.75850052     0.10100
S619        S  0.95412370  0.90450810  0.69041155    -0.33200
S620        S  0.08479026  0.81651053  0.78549708    -0.33200
H621        H  0.07613925  0.83539911  0.81946186     0.28100
H622        H  0.96716557  0.94141818  0.69680395     0.28100
H623        H  0.01404438  0.93079047  0.73881834     0.18700
H624        H  0.02720547  0.79136748  0.73569930     0.18700
C625        C  0.99036311  0.00919375  0.86684215    -0.07100
C626        C  0.97050478  0.99489880  0.89843955    -0.18200
C627        C  0.93617744  0.01132770  0.91042586     0.10100
C628        C  0.92233012  0.04489711  0.89272902    -0.07000
C629        C  0.93962622  0.05710196  0.85888615    -0.18300
C630        C  0.97266124  0.03875205  0.84481958     0.10100
S631        S  0.91140074  0.98815238  0.94891072    -0.33200
S632        S  0.99147026  0.05440712  0.79930161    -0.33200
H633        H  0.96132660  0.07923044  0.78955734     0.28100
H634        H  0.87500174  0.00140470  0.93783266     0.28100
H635        H  0.98200765  0.97102440  0.91438132     0.18700
H636        H  0.92857019  0.08222893  0.84471398     0.18700
C637        C  0.98553038  0.25256701  0.93446331    -0.07100
C638        C  0.94661328  0.26073547  0.92702844    -0.18200
C639        C  0.91698281  0.23529766  0.93671950     0.10100
C640        C  0.92572846  0.19966083  0.95355759    -0.07000
C641        C  0.96433956  0.19244886  0.96311491    -0.18300
C642        C  0.99392185  0.21814467  0.95387652     0.10100
S643        S  0.86858098  0.24987824  0.92639238    -0.33200
S644        S  0.04234334  0.20312727  0.96321536    -0.33200
H645        H  0.05489666  0.23906658  0.97404985     0.28100
H646        H  0.85189289  0.22979496  0.95696466     0.28100
H647        H  0.93930835  0.28660859  0.91176485     0.18700
H648        H  0.97198428  0.16544806  0.97599051     0.18700
C649        C  0.95493543  0.40815922  0.75629338    -0.07100
C650        C  0.98858941  0.39347099  0.74051190    -0.18200
C651        C  0.01395355  0.37174865  0.76225700     0.10100
C652        C  0.00539895  0.36418269  0.80100119    -0.07000
C653        C  0.97285361  0.38114164  0.81754821    -0.18300
C654        C  0.94741544  0.40311683  0.79541151     0.10100
S655        S  0.05656244  0.35472331  0.73855262    -0.33200
S656        S  0.90436652  0.42246583  0.81637978    -0.33200
H657        H  0.91210044  0.41078517  0.85402543     0.28100
H658        H  0.07940018  0.35326780  0.77129447     0.28100
H659        H  0.99513114  0.39908833  0.71089258     0.18700
H660        H  0.96636161  0.37553546  0.84724631     0.18700
C661        C  0.09502460  0.15606106  0.86070130    -0.07100
C662        C  0.12734503  0.13925605  0.87757941    -0.18200
C663        C  0.13884500  0.10299947  0.86773730     0.10100
C664        C  0.11776813  0.08354893  0.84036529    -0.07000
C665        C  0.08608026  0.10056195  0.82284562    -0.18300
C666        C  0.07390060  0.13648470  0.83331681     0.10100
S667        S  0.18019061  0.08264598  0.89105902    -0.33200
S668        S  0.03198575  0.15713496  0.81103147    -0.33200
H669        H  0.02915575  0.13083956  0.78145079     0.28100
H670        H  0.18812959  0.05545011  0.86310327     0.28100
H671        H  0.14447868  0.15509807  0.89743079     0.18700
H672        H  0.06931965  0.08454771  0.80290239     0.18700
C673        C  0.17168137  0.37715632  0.82774179    -0.07100
C674        C  0.16587432  0.38470370  0.78870511    -0.18200
C675        C  0.19689317  0.39116308  0.76365975     0.10100
C676        C  0.23460007  0.39007797  0.77808216    -0.07000
C677        C  0.23976889  0.38728709  0.81763122    -0.18300
C678        C  0.20894063  0.38140396  0.84245807     0.10100
S679        S  0.18633956  0.39801774  0.71375939    -0.33200
S680        S  0.21940133  0.37507754  0.89246693    -0.33200
H681        H  0.18175119  0.38147803  0.90532307     0.28100
H682        H  0.22258658  0.38872329  0.69920228     0.28100
H683        H  0.13755643  0.38165060  0.77685584     0.18700
H684        H  0.26844016  0.38813256  0.82927258     0.18700
C685        C  0.17657600  0.28985768  0.96243437    -0.07100
C686        C  0.21264287  0.27315515  0.95534344    -0.18200
C687        C  0.24488310  0.28138591  0.97757804     0.10100
C688        C  0.24175121  0.30658464  0.00846296    -0.07000
C689        C  0.20514236  0.32061061  0.01776897    -0.18300
C690        C  0.17276335  0.31244700  0.99544316     0.10100
S691        S  0.29022180  0.26145824  0.96299864    -0.33200
S692        S  0.12775510  0.33303731  0.00983051    -0.33200
H693        H  0.10553271  0.30267694  0.99718293     0.28100
H694        H  0.30841861  0.26534508  0.99837916     0.28100
H695        H  0.21659719  0.25560883  0.93052429     0.18700
H696        H  0.20218780  0.34050053  0.04086765     0.18700
C697        C  0.37687364  0.36290046  0.91605991    -0.07100
C698        C  0.34966792  0.33954291  0.89955775    -0.18200
C699        C  0.34637164  0.33808719  0.86030742     0.10100
C700        C  0.37026916  0.36121907  0.83790044    -0.07000
C701        C  0.39995812  0.38152755  0.85420783    -0.18300
C702        C  0.40390221  0.38217231  0.89346874     0.10100
S703        S  0.30800783  0.31055238  0.84093818    -0.33200
S704        S  0.43956672  0.41279173  0.91305848    -0.33200
H705        H  0.44975564  0.38775098  0.94276764     0.28100
H706        H  0.32694497  0.30156583  0.80682448     0.28100
H707        H  0.32887855  0.32501967  0.91730726     0.18700
H708        H  0.41813713  0.39918286  0.83651029     0.18700
C709        C  0.81067600  0.54344006  0.83316372    -0.07100
C710        C  0.84832553  0.54332733  0.81955358    -0.18200
C711        C  0.85904329  0.52483278  0.78613951     0.10100
C712        C  0.83216583  0.50272960  0.76591546    -0.07000
C713        C  0.79456318  0.50083416  0.78055700    -0.18300
C714        C  0.78345531  0.52134729  0.81352762     0.10100
S715        S  0.90689472  0.53352324  0.76850772    -0.33200
S716        S  0.73435048  0.51845523  0.82891592    -0.33200
H717        H  0.74194073  0.52390715  0.86777367     0.28100
H718        H  0.92266122  0.54690499  0.80254633     0.28100
H719        H  0.86923422  0.56065465  0.83365235     0.18700
H720        H  0.77334743  0.48479518  0.76537389     0.18700
C721        C  0.87968585  0.67778481  0.84049190    -0.07100
C722        C  0.89101403  0.65500014  0.80997800    -0.18200
C723        C  0.89654974  0.67029506  0.77342059     0.10100
C724        C  0.89191440  0.70975309  0.76711117    -0.07000
C725        C  0.88430292  0.73294702  0.79846021    -0.18300
C726        C  0.87864068  0.71738499  0.83498448     0.10100
S727        S  0.90467008  0.63718473  0.73545054    -0.33200
S728        S  0.86743405  0.74917678  0.87311414    -0.33200
H729        H  0.87558739  0.72347232  0.90291413     0.28100
H730        H  0.87819547  0.65432535  0.71045202     0.28100
H731        H  0.89090469  0.62450013  0.81354230     0.18700
H732        H  0.88205397  0.76329356  0.79440007     0.18700
C733        C  0.45052319  0.56140851  0.79122586    -0.07100
C734        C  0.46630135  0.52536579  0.79935920    -0.18200
C735        C  0.45701075  0.49349634  0.77792016     0.10100
C736        C  0.43177660  0.49710920  0.74680359    -0.07000
C737        C  0.41873254  0.53354055  0.73638049    -0.18300
C738        C  0.42787247  0.56557028  0.75805488     0.10100
S739        S  0.47549831  0.44821143  0.79381574    -0.33200
S740        S  0.40864693  0.61059155  0.74267407    -0.33200
H741        H  0.43935841  0.63190237  0.75642278     0.28100
H742        H  0.47126749  0.42979005  0.75880688     0.28100
H743        H  0.48392085  0.52123622  0.82440993     0.18700
H744        H  0.39884919  0.53671218  0.71292594     0.18700
C745        C  0.35238671  0.50248386  0.97599364    -0.07100
C746        C  0.36257845  0.53638604  0.99368731    -0.18200
C747        C  0.36994372  0.56951312  0.97190834     0.10100
C748        C  0.36804697  0.56846489  0.93173335    -0.07000
C749        C  0.35406056  0.53576091  0.91465684    -0.18300
C750        C  0.34566339  0.50313830  0.93624688     0.10100
S751        S  0.38530804  0.61209818  0.99502785    -0.33200
S752        S  0.32803799  0.46202979  0.91216694    -0.33200
H753        H  0.32929292  0.47691457  0.87485693     0.28100
H754        H  0.38209070  0.59819928  0.03260180     0.28100
H755        H  0.36673185  0.53633894  0.02421834     0.18700
H756        H  0.35271367  0.53487311  0.88386736     0.18700
C757        C  0.59107180  0.62898462  0.89914392    -0.07100
C758        C  0.60284959  0.63890412  0.93570211    -0.18200
C759        C  0.63848493  0.62804793  0.94908270     0.10100
C760        C  0.66387248  0.60965434  0.92417609    -0.07000
C761        C  0.65078728  0.59646627  0.88899179    -0.18300
C762        C  0.61433013  0.60595276  0.87620505     0.10100
S763        S  0.65096625  0.64104685  0.99688590    -0.33200
S764        S  0.59970725  0.58935605  0.83013914    -0.33200
H765        H  0.57217329  0.61780182  0.82320727     0.28100
H766        H  0.67023098  0.60674359  0.00476500     0.28100
H767        H  0.58355986  0.65400667  0.95454979     0.18700
H768        H  0.67037322  0.58203493  0.86989071     0.18700
C769        C  0.40699824  0.90786588  0.38439962    -0.07100
C770        C  0.44400331  0.89279638  0.38716480    -0.18200
C771        C  0.45022417  0.85398046  0.38547903     0.10100
C772        C  0.41814703  0.83022231  0.38220834    -0.07000
C773        C  0.38098271  0.84555814  0.38605973    -0.18300
C774        C  0.37508189  0.88438391  0.38682523     0.10100
S775        S  0.49902608  0.83694088  0.38218113    -0.33200
S776        S  0.32664538  0.90216441  0.38553011    -0.33200
H777        H  0.33339407  0.93279911  0.40966217     0.28100
H778        H  0.51621199  0.86920720  0.39749692     0.28100
H779        H  0.46819855  0.91171829  0.38663960     0.18700
H780        H  0.35616207  0.82744886  0.38544388     0.18700
C781        C  0.95554740  0.93247604  0.20229077    -0.07100
C782        C  0.93762221  0.92543123  0.23764974    -0.18200
C783        C  0.92978787  0.95501206  0.26348031     0.10100
C784        C  0.93895827  0.99296844  0.25365942    -0.07000
C785        C  0.96003949  0.99920471  0.22015123    -0.18300
C786        C  0.96916182  0.96972242  0.19520338     0.10100
S787        S  0.90442124  0.94308076  0.30662638    -0.33200
S788        S  0.99782438  0.98197944  0.15425977    -0.33200
H789        H  0.02233558  0.95070178  0.15964943     0.28100
H790        H  0.92374860  0.96934587  0.32912894     0.28100
H791        H  0.92760820  0.89720316  0.24432461     0.18700
H792        H  0.96764067  0.02789710  0.21215352     0.18700
C793        C  0.90577618  0.74531930  0.06066134    -0.07100
C794        C  0.86598968  0.74380457  0.06640841    -0.18200
C795        C  0.84263941  0.72122526  0.04389318     0.10100
C796        C  0.85925778  0.69976234  0.01433506    -0.07000
C797        C  0.89900108  0.70014767  0.00921089    -0.18300
C798        C  0.92251494  0.72272366  0.03174795     0.10100
S799        S  0.79196755  0.71895247  0.05442124    -0.33200
S800        S  0.97326486  0.72348899  0.02142997    -0.33200
H801        H  0.97323403  0.69751654  0.99139194     0.28100
H802        H  0.79223123  0.74158427  0.08710149     0.28100
H803        H  0.85301087  0.76056948  0.08869410     0.18700
H804        H  0.91149000  0.68341445  0.98661535     0.18700
C805        C  0.84796100  0.98930843  0.04359281    -0.07100
C806        C  0.84797193  0.95718207  0.02069064    -0.18200
C807        C  0.85730171  0.92158115  0.03575899     0.10100
C808        C  0.86758523  0.91800927  0.07451814    -0.07000
C809        C  0.86311930  0.94939055  0.09834158    -0.18300
C810        C  0.85343563  0.98507493  0.08327323     0.10100
S811        S  0.85954804  0.88232952  0.00340710    -0.33200
S812        S  0.85413464  0.02477113  0.11508800    -0.33200
H813        H  0.82195322  0.04312450  0.09954061     0.28100
H814        H  0.85807233  0.85391426  0.03177106     0.28100
H815        H  0.84240944  0.96007341  0.99049340     0.18700
H816        H  0.87153918  0.94716732  0.12798807     0.18700
C817        C  0.06670001  0.86846001  0.91953726    -0.07100
C818        C  0.02840549  0.88089702  0.92054085    -0.18200
C819        C  0.00471644  0.87253583  0.95180554     0.10100
C820        C  0.01919269  0.85030113  0.98194315    -0.07000
C821        C  0.05591088  0.83411617  0.97877819    -0.18300
C822        C  0.07998270  0.84333213  0.94806802     0.10100
S823        S  0.95723242  0.89267044  0.95460216    -0.33200
S824        S  0.12860968  0.82604254  0.94917590    -0.33200
H825        H  0.13539206  0.83022966  0.90985641     0.28100
H826        H  0.95544158  0.90514735  0.91644644     0.28100
H827        H  0.01836701  0.90056162  0.89882825     0.18700
H828        H  0.06719435  0.81704459  0.00207130     0.18700
C829        C  0.26805125  0.93213480  0.98756863    -0.07100
C830        C  0.23860902  0.95900282  0.99217612    -0.18200
C831        C  0.21165062  0.96670236  0.96337399     0.10100
C832        C  0.21408341  0.94789283  0.92776547    -0.07000
C833        C  0.24590119  0.92391991  0.92184580    -0.18300
C834        C  0.27281733  0.91626780  0.95091832     0.10100
S835        S  0.17199938  0.99679725  0.97650194    -0.33200
S836        S  0.31029465  0.88259026  0.94076132    -0.33200
H837        H  0.33643248  0.89746893  0.96681076     0.28100
H838        H  0.14445149  0.96913945  0.96873582     0.28100
H839        H  0.23371780  0.97072439  0.02019456     0.18700
H840        H  0.24901789  0.90965196  0.89485679     0.18700
C841        C  0.32557349  0.99677007  0.24402105    -0.07100
C842        C  0.33878792  0.00613886  0.20712147    -0.18200
C843        C  0.33216853  0.98245788  0.17552168     0.10100
C844        C  0.31219503  0.94787569  0.18050721    -0.07000
C845        C  0.29617785  0.94067684  0.21689756    -0.18300
C846        C  0.30267430  0.96423318  0.24815688     0.10100
S847        S  0.35306530  0.99634122  0.13068851    -0.33200
S848        S  0.28378960  0.94924395  0.29377715    -0.33200
H849        H  0.28487862  0.98504782  0.31078376     0.28100
H850        H  0.31877880  0.99177416  0.11048117     0.28100
H851        H  0.35705146  0.03049234  0.20340149     0.18700
H852        H  0.27973950  0.91523448  0.22179656     0.18700
C853        C  0.39740817  0.74047069  0.95389863    -0.07100
C854        C  0.35743442  0.74176888  0.95223120    -0.18200
C855        C  0.33616966  0.76759212  0.97407763     0.10100
C856        C  0.35551415  0.79343787  0.99787573    -0.07000
C857        C  0.39568132  0.79266804  0.99849520    -0.18300
C858        C  0.41678442  0.76672812  0.97680472     0.10100
S859        S  0.28452662  0.76494380  0.97275825    -0.33200
S860        S  0.46850260  0.76865001  0.97744790    -0.33200
H861        H  0.47181184  0.79822231  0.00364699     0.28100
H862        H  0.28183046  0.73921517  0.94264955     0.28100
H863        H  0.34283807  0.72146298  0.93474260     0.18700
H864        H  0.41065890  0.81258974  0.01607605     0.18700
C865        C  0.40078285  0.75932444  0.23944402    -0.07100
C866        C  0.41378258  0.79613197  0.23063907    -0.18200
C867        C  0.40251530  0.81522664  0.19704511     0.10100
C868        C  0.37692259  0.79762067  0.17191067    -0.07000
C869        C  0.36806713  0.75930908  0.17868336    -0.18300
C870        C  0.37974452  0.74014341  0.21169595     0.10100
S871        S  0.41912182  0.86277968  0.18962107    -0.33200
S872        S  0.36620733  0.69147850  0.21690226    -0.33200
H873        H  0.40012141  0.68023183  0.23544419     0.28100
H874        H  0.42730085  0.85736175  0.15077016     0.28100
H875        H  0.43121947  0.81097334  0.25094884     0.18700
H876        H  0.34968780  0.74469770  0.15913535     0.18700
C877        C  0.08974843  0.89044207  0.10976222    -0.07100
C878        C  0.10648243  0.88159533  0.14481148    -0.18200
C879        C  0.14602715  0.88038212  0.14803447     0.10100
C880        C  0.16827870  0.88736444  0.11519202    -0.07000
C881        C  0.15134831  0.90177421  0.08193901    -0.18300
C882        C  0.11189693  0.90349833  0.07892835     0.10100
S883        S  0.16597169  0.86326267  0.19224898    -0.33200
S884        S  0.09155566  0.91762052  0.03376238    -0.33200
H885        H  0.05676324  0.93075541  0.04912024     0.28100
H886        H  0.19411053  0.89142986  0.19349408     0.28100
H887        H  0.08889350  0.87199453  0.16848977     0.18700
H888        H  0.16875874  0.90794900  0.05701290     0.18700
C889        C  0.54730004  0.80740361  0.80459752    -0.07100
C890        C  0.51240642  0.81610398  0.82270767    -0.18200
C891        C  0.48478489  0.78806605  0.83030184     0.10100
C892        C  0.49155340  0.74987289  0.82002727    -0.07000
C893        C  0.52447295  0.74187994  0.79850989    -0.18300
C894        C  0.55205557  0.77000050  0.79034050     0.10100
S895        S  0.44251004  0.80198194  0.85642458    -0.33200
S896        S  0.59363420  0.75701246  0.76240803    -0.33200
H897        H  0.58339910  0.71929294  0.75567866     0.28100
H898        H  0.42000358  0.77135758  0.84497741     0.28100
H899        H  0.50744934  0.84443190  0.83310529     0.18700
H900        H  0.53019557  0.71280302  0.79092009     0.18700
C901        C  0.69814847  0.98867886  0.85538321    -0.07100
C902        C  0.71713625  0.97234542  0.88678833    -0.18200
C903        C  0.74495782  0.99189503  0.90703282     0.10100
C904        C  0.75348709  0.02993507  0.89719049    -0.07000
C905        C  0.73458514  0.04631737  0.86560009    -0.18300
C906        C  0.70744324  0.02621594  0.84446164     0.10100
S907        S  0.76943503  0.96558018  0.94393812    -0.33200
S908        S  0.68387285  0.04977590  0.80494805    -0.33200
H909        H  0.70628959  0.08263280  0.80440991     0.28100
H910        H  0.80577903  0.97840563  0.93260211     0.28100
H911        H  0.71136538  0.94325524  0.89491944     0.18700
H912        H  0.74036950  0.07546283  0.85792170     0.18700
C913        C  0.72254228  0.75068250  0.90832610    -0.07100
C914        C  0.68262398  0.75056047  0.90422720    -0.18200
C915        C  0.66250166  0.78359364  0.89426699     0.10100
C916        C  0.68286790  0.81732179  0.88705879    -0.07000
C917        C  0.72209671  0.81821004  0.89555247    -0.18300
C918        C  0.74192295  0.78545349  0.90688564     0.10100
S919        S  0.61176907  0.77967941  0.88677240    -0.33200
S920        S  0.79163458  0.79002467  0.91885003    -0.33200
H921        H  0.79371529  0.75801548  0.94285796     0.28100
H922        H  0.60297358  0.81471972  0.90334503     0.28100
H923        H  0.66722535  0.72418142  0.90707580     0.18700
H924        H  0.73791316  0.84407467  0.89077897     0.18700
C925        C  0.76854881  0.89164772  0.73497139    -0.07100
C926        C  0.79947365  0.87498349  0.75415991    -0.18200
C927        C  0.83342226  0.86604004  0.73473579     0.10100
C928        C  0.83585503  0.87149565  0.69477649    -0.07000
C929        C  0.80664815  0.89201275  0.67647573    -0.18300
C930        C  0.77347796  0.90302471  0.69638418     0.10100
S931        S  0.87106724  0.84290239  0.76138559    -0.33200
S932        S  0.73696437  0.92800065  0.66986386    -0.33200
H933        H  0.72424593  0.95015303  0.70040311     0.28100
H934        H  0.90005890  0.84959549  0.73432038     0.28100
H935        H  0.79647959  0.86707771  0.78393216     0.18700
H936        H  0.80794627  0.89627083  0.64587423     0.18700
C937        C  0.82139526  0.78940679  0.54827501    -0.07100
C938        C  0.83337732  0.80815631  0.51478359    -0.18200
C939        C  0.80769451  0.81750800  0.48537487     0.10100
C940        C  0.76831799  0.80883412  0.48896371    -0.07000
C941        C  0.75684823  0.78670464  0.52031394    -0.18300
C942        C  0.78263992  0.77678553  0.54988788     0.10100
S943        S  0.82636680  0.84351492  0.44493061    -0.33200
S944        S  0.76398882  0.75093276  0.59063603    -0.33200
H945        H  0.72506624  0.75285379  0.58077299     0.28100
H946        H  0.79673761  0.83404284  0.41986871     0.28100
H947        H  0.86281251  0.81711701  0.51199319     0.18700
H948        H  0.72675966  0.78033106  0.52343316     0.18700
C949        C  0.57606275  0.79062355  0.45596241    -0.07100
C950        C  0.53702679  0.79591577  0.46517170    -0.18200
C951        C  0.50920284  0.76826893  0.45708743     0.10100
C952        C  0.51992548  0.73443564  0.43839184    -0.07000
C953        C  0.55927803  0.72784742  0.43247404    -0.18300
C954        C  0.58716483  0.75469911  0.44189074     0.10100
S955        S  0.45999565  0.77970619  0.46735653    -0.33200
S956        S  0.63652320  0.74128416  0.43495215    -0.33200
H957        H  0.64999142  0.76130889  0.46654978     0.28100
H958        H  0.45061543  0.74289775  0.47941572     0.28100
H959        H  0.52761148  0.82274511  0.47676492     0.18700
H960        H  0.56836937  0.70197778  0.41863589     0.18700
C961        C  0.75715433  0.95020894  0.39880660    -0.07100
C962        C  0.78742531  0.96717583  0.41828034    -0.18200
C963        C  0.81551312  0.98769094  0.39886102     0.10100
C964        C  0.81284504  0.99255873  0.35898113    -0.07000
C965        C  0.78330681  0.97441227  0.33936410    -0.18300
C966        C  0.75538026  0.95362974  0.35880363     0.10100
S967        S  0.85466067  0.00551065  0.42647192    -0.33200
S968        S  0.71681514  0.93461832  0.33129796    -0.33200
H969        H  0.68835980  0.94493161  0.35771640     0.28100
H970        H  0.88243798  0.99943687  0.39800102     0.28100
H971        H  0.78978204  0.96363719  0.44889486     0.18700
H972        H  0.78066920  0.97809598  0.30879382     0.18700
C973        C  0.59149919  0.93933425  0.37324305    -0.07100
C974        C  0.56422549  0.92250176  0.34995242    -0.18200
C975        C  0.53235013  0.94333328  0.33691069     0.10100
C976        C  0.52633975  0.98086556  0.34963928    -0.07000
C977        C  0.55578727  0.99877837  0.36901685    -0.18300
C978        C  0.58888498  0.97861028  0.37956542     0.10100
S979        S  0.49881383  0.91947749  0.30691330    -0.33200
S980        S  0.62668140  0.00217711  0.40406088    -0.33200
H981        H  0.61137157  0.03899418  0.40078156     0.28100
H982        H  0.48845533  0.95186637  0.28568937     0.28100
H983        H  0.56613875  0.89247308  0.34434359     0.18700
H984        H  0.55189387  0.02784093  0.37773883     0.18700
C985        C  0.65859951  0.85254096  0.58951917    -0.07100
C986        C  0.62122797  0.85022017  0.60456798    -0.18200
C987        C  0.61501996  0.85057231  0.64367332     0.10100
C988        C  0.64690169  0.85156612  0.66759237    -0.07000
C989        C  0.68377653  0.84643282  0.65299879    -0.18300
C990        C  0.69037057  0.84791112  0.61397410     0.10100
S991        S  0.56655438  0.85531089  0.66087298    -0.33200
S992        S  0.73941925  0.85069563  0.59760416    -0.33200
H993        H  0.75666345  0.83735000  0.63137488     0.28100
H994        H  0.57296530  0.83787995  0.69645210     0.28100
H995        H  0.59664675  0.85225401  0.58591605     0.18700
H996        H  0.70783936  0.84620175  0.67236578     0.18700
C997        C  0.49546239  0.23358671  0.07035175    -0.07100
C998        C  0.46084602  0.22924755  0.09050725    -0.18200
C999        C  0.42911503  0.25335404  0.08382208     0.26900
C1000       C  0.43166602  0.28302683  0.05642588    -0.07000
C1001       C  0.46520605  0.28504087  0.03407743    -0.18300
C1002       C  0.49664707  0.26071983  0.04052041     0.10100
S1003       S  0.38850842  0.24835650  0.11502660    -0.33200
S1004       S  0.53879098  0.26742554  0.01153628    -0.33200
H1005       H  0.55490009  0.23148668  0.01886962     0.28100
H1006       H  0.36231206  0.24598475  0.08487759     0.28100
H1007       H  0.45966546  0.20931492  0.11417893     0.18700
H1008       H  0.46773342  0.30707674  0.01249928     0.18700
C1009       C  0.68092192  0.18264943  0.04678189    -0.07100
C1010       C  0.66849640  0.16620556  0.01281548    -0.18200
C1011       C  0.69315273  0.16189829  0.98136566     0.10100
C1012       C  0.73190805  0.17340918  0.98340295    -0.07000
C1013       C  0.74284912  0.19443757  0.01517146    -0.18300
C1014       C  0.71783019  0.19951385  0.04663703     0.10100
S1015       S  0.67463263  0.13769419  0.94046849    -0.33200
S1016       S  0.73488087  0.22506515  0.08739744    -0.33200
H1017       H  0.77101125  0.23445654  0.07246025     0.28100
H1018       H  0.70284823  0.15057547  0.91483933     0.28100
H1019       H  0.63994322  0.15467407  0.01132233     0.18700
H1020       H  0.77232855  0.20326482  0.01719213     0.18700
C1021       C  0.44609248  0.10423441  0.24641001    -0.07100
C1022       C  0.45564304  0.14128406  0.25706006    -0.18200
C1023       C  0.48011985  0.16364251  0.23481651     0.10100
C1024       C  0.49566672  0.14905408  0.20086591    -0.07000
C1025       C  0.48384570  0.11338574  0.18859854    -0.18300
C1026       C  0.45878290  0.09107670  0.21043702     0.10100
S1027       S  0.49333007  0.20897674  0.25307929    -0.33200
S1028       S  0.44357301  0.04631267  0.19140433    -0.33200
H1029       H  0.45938104  0.05088587  0.15474228     0.28100
H1030       H  0.53252514  0.19982762  0.25247384     0.28100
H1031       H  0.44566885  0.15239492  0.28401345     0.18700
H1032       H  0.49495131  0.10269406  0.16191792     0.18700
C1033       C  0.66488578  0.10932525  0.20636637    -0.07100
C1034       C  0.69200737  0.08560168  0.18909323    -0.18200
C1035       C  0.72474462  0.07353978  0.20916171     0.10100
C1036       C  0.73171526  0.08784571  0.24607078    -0.07000
C1037       C  0.70201997  0.10661086  0.26499693    -0.18300
C1038       C  0.66787240  0.11552150  0.24610551     0.10100
S1039       S  0.75831612  0.04320574  0.18483605    -0.33200
S1040       S  0.63047231  0.13858258  0.27299461    -0.33200
H1041       H  0.60120123  0.13139342  0.24669682     0.28100
H1042       H  0.76884995  0.02238958  0.21750457     0.28100
H1043       H  0.68958353  0.07929879  0.15906673     0.18700
H1044       H  0.70610822  0.11596237  0.29399556     0.18700
C1045       C  0.61320701  0.27155588  0.26090486    -0.07100
C1046       C  0.61891283  0.25056912  0.29443884    -0.18200
C1047       C  0.62680537  0.26856150  0.32887778     0.10100
C1048       C  0.63011900  0.30844259  0.32995475    -0.07000
C1049       C  0.62064258  0.32956582  0.29719179    -0.18300
C1050       C  0.61193140  0.31146015  0.26277329     0.10100
S1051       S  0.63501863  0.23901702  0.37024267    -0.33200
S1052       S  0.60079287  0.33936835  0.22093753    -0.33200
H1053       H  0.60434926  0.37507571  0.23776290     0.28100
H1054       H  0.62848961  0.26752648  0.39719654     0.28100
H1055       H  0.61854596  0.21998998  0.29356598     0.18700
H1056       H  0.62343612  0.36004144  0.29765171     0.18700
C1057       C  0.69873282  0.45547512  0.33166185    -0.07100
C1058       C  0.72509707  0.45785808  0.30134754    -0.18200
C1059       C  0.71989506  0.48367615  0.27105771     0.10100
C1060       C  0.68704212  0.50711003  0.26980074    -0.07000
C1061       C  0.66336111  0.50808772  0.30227962    -0.18300
C1062       C  0.66883968  0.48274713  0.33309501     0.10100
S1063       S  0.75365248  0.48274158  0.23223685    -0.33200
S1064       S  0.63316142  0.48257408  0.37016845    -0.33200
H1065       H  0.66017847  0.48559743  0.39951438     0.28100
H1066       H  0.74429447  0.51934852  0.21898989     0.28100
H1067       H  0.74886855  0.43801166  0.30015516     0.18700
H1068       H  0.63759660  0.52535625  0.30164169     0.18700
C1069       C  0.70919863  0.54106564  0.07816191    -0.07100
C1070       C  0.70447529  0.53199493  0.03935148    -0.18200
C1071       C  0.73344479  0.53834556  0.01210378     0.10100
C1072       C  0.76778436  0.55592027  0.02294472    -0.07000
C1073       C  0.77409564  0.56129972  0.06206805    -0.18300
C1074       C  0.74595201  0.55310546  0.08964124     0.10100
S1075       S  0.72333383  0.52683712  0.96333591    -0.33200
S1076       S  0.75872805  0.55980530  0.13863242    -0.33200
H1077       H  0.74440486  0.52430849  0.14993482     0.28100
H1078       H  0.76135601  0.51749036  0.95401624     0.28100
H1079       H  0.67746869  0.52092116  0.02964836     0.18700
H1080       H  0.80041427  0.57442818  0.07104593     0.18700
C1081       C  0.54423100  0.57483333  0.25340107    -0.07100
C1082       C  0.54959283  0.57300896  0.29295915    -0.18200
C1083       C  0.52867088  0.59661773  0.31755730     0.10100
C1084       C  0.50206651  0.62301053  0.30200439    -0.07000
C1085       C  0.49485181  0.62257395  0.26269843    -0.18300
C1086       C  0.51507281  0.59846179  0.23839946     0.10100
S1087       S  0.53844010  0.59425311  0.36805871    -0.33200
S1088       S  0.50274543  0.59760765  0.18839150    -0.33200
H1089       H  0.46938857  0.61998421  0.19095649     0.28100
H1090       H  0.56218632  0.56193389  0.36732086     0.28100
H1091       H  0.57155750  0.55437798  0.30439776     0.18700
H1092       H  0.47339759  0.64156238  0.25086356     0.18700
C1093       C  0.54268343  0.58562904  0.08149089    -0.07100
C1094       C  0.51195226  0.56459833  0.06674877    -0.18200
C1095       C  0.49392461  0.57461533  0.03262090     0.10100
C1096       C  0.50480045  0.60829758  0.01373289    -0.07000
C1097       C  0.53126732  0.63227006  0.03182562    -0.18300
C1098       C  0.55015054  0.62138554  0.06533615     0.10100
S1099       S  0.45982018  0.54214392  0.01275669    -0.33200
S1100       S  0.58392737  0.65377856  0.08515433    -0.33200
H1101       H  0.57327783  0.64586979  0.12312076     0.28100
H1102       H  0.46137965  0.51419889  0.04157101     0.28100
H1103       H  0.50400636  0.53814624  0.08031275     0.18700
H1104       H  0.53884526  0.65920610  0.01894308     0.18700
C1105       C  0.65694946  0.39610486  0.13301389    -0.07100
C1106       C  0.64284420  0.38240292  0.09850484    -0.18200
C1107       C  0.63960072  0.34379735  0.09327697     0.10100
C1108       C  0.65189482  0.31958661  0.12260951    -0.07000
C1109       C  0.67296094  0.33318517  0.15328563    -0.18300
C1110       C  0.67507154  0.37177353  0.15920550     0.10100
S1111       S  0.61470641  0.32722293  0.05191991    -0.33200
S1112       S  0.69626682  0.38811297  0.20269794    -0.33200
H1113       H  0.70302363  0.42507911  0.18922432     0.28100
H1114       H  0.62907534  0.28995674  0.05382808     0.28100
H1115       H  0.62950106  0.40154749  0.07798821     0.18700
H1116       H  0.68304684  0.31384917  0.17543926     0.18700
C1117       C  0.50208626  0.44162931  0.15252688    -0.07100
C1118       C  0.46957623  0.46500523  0.15560288    -0.18200
C1119       C  0.43357235  0.45235972  0.14409844     0.10100
C1120       C  0.42977760  0.41527776  0.13021712    -0.07000
C1121       C  0.46156944  0.39081251  0.13086510    -0.18300
C1122       C  0.49770362  0.40366949  0.14132907     0.10100
S1123       S  0.39406984  0.48547365  0.14507460    -0.33200
S1124       S  0.53735573  0.37094834  0.13736694    -0.33200
H1125       H  0.55964349  0.38763153  0.16564239     0.28100
H1126       H  0.36509198  0.45808622  0.14525008     0.28100
H1127       H  0.47268555  0.49410807  0.16446658     0.18700
H1128       H  0.45903941  0.36244091  0.11972108     0.18700
C1129       C  0.45433541  0.31024566  0.70139866    -0.07100
C1130       C  0.48752715  0.31806394  0.67990889    -0.18200
C1131       C  0.51524403  0.28968970  0.67245819     0.10100
C1132       C  0.51004988  0.25228861  0.68654129    -0.07000
C1133       C  0.47919039  0.24580040  0.71134506    -0.18300
C1134       C  0.45173818  0.27395227  0.71902508     0.10100
S1135       S  0.55430278  0.30188946  0.64116182    -0.33200
S1136       S  0.41325911  0.26098832  0.75065663    -0.33200
H1137       H  0.41588239  0.29462492  0.77131516     0.28100
H1138       H  0.58040159  0.27594027  0.65731086     0.28100
H1139       H  0.49072239  0.34565583  0.66665701     0.18700
H1140       H  0.47486196  0.21757242  0.72270035     0.18700
C1141       C  0.55838692  0.06332035  0.70873086    -0.07100
C1142       C  0.54097121  0.02876020  0.69954708    -0.18200
C1143       C  0.54570569  0.99607983  0.72204512     0.10100
C1144       C  0.56804481  0.99716434  0.75537415    -0.07000
C1145       C  0.58163985  0.03256330  0.76720394    -0.18300
C1146       C  0.57690118  0.06557333  0.74445568     0.10100
S1147       S  0.52572673  0.95272093  0.70459256    -0.33200
S1148       S  0.59877751  0.10834124  0.76048378    -0.33200
H1149       H  0.56600782  0.13067841  0.75351946     0.28100
H1150       H  0.52535084  0.93364863  0.73998522     0.28100
H1151       H  0.52544983  0.02637424  0.67302142     0.18700
H1152       H  0.59908187  0.03390533  0.79258541     0.18700
C1153       C  0.64880488  0.29807744  0.50821648    -0.07100
C1154       C  0.66891945  0.27799460  0.53670806    -0.18200
C1155       C  0.65028531  0.25412719  0.56260274     0.10100
C1156       C  0.61038380  0.24888854  0.55958497    -0.07000
C1157       C  0.59006057  0.26983530  0.53194244    -0.18300
C1158       C  0.60848937  0.29453007  0.50654217     0.10100
S1159       S  0.67923315  0.23221651  0.59917984    -0.33200
S1160       S  0.57947640  0.32069157  0.47252671    -0.33200
H1161       H  0.54356883  0.31218580  0.48854643     0.28100
H1162       H  0.65243140  0.23886631  0.62842945     0.28100
H1163       H  0.69964108  0.28082031  0.53903017     0.18700
H1164       H  0.55950530  0.26609598  0.52946636     0.18700
C1165       C  0.65696898  0.00327290  0.53459580    -0.07100
C1166       C  0.65095066  0.00290896  0.57412082    -0.18200
C1167       C  0.64438850  0.03648017  0.59396977     0.10100
C1168       C  0.64127230  0.07111624  0.57358093    -0.07000
C1169       C  0.65188198  0.07185238  0.53495859    -0.18300
C1170       C  0.66138572  0.03849872  0.51578759     0.10100
S1171       S  0.63684838  0.03260733  0.64461122    -0.33200
S1172       S  0.68064700  0.04311205  0.46846554    -0.33200
H1173       H  0.70243552  0.00961097  0.46999290     0.28100
H1174       H  0.65412000  0.06733146  0.65277049     0.28100
H1175       H  0.65020428  0.97614411  0.58950613     0.18700
H1176       H  0.65087995  0.09838357  0.51916760     0.18700
C1177       C  0.48319090  0.14041771  0.49199345    -0.07100
C1178       C  0.44370288  0.13379427  0.49510816    -0.18200
C1179       C  0.42131128  0.12628953  0.46292750     0.10100
C1180       C  0.43881348  0.12448932  0.42668367    -0.07000
C1181       C  0.47755210  0.13491477  0.42325162    -0.18300
C1182       C  0.49989533  0.14282828  0.45539809     0.10100
S1183       S  0.37143384  0.11467798  0.46907321    -0.33200
S1184       S  0.54998365  0.15252088  0.44787283    -0.33200
H1185       H  0.56324795  0.13774085  0.48275454     0.28100
H1186       H  0.36891182  0.12308798  0.50808883     0.28100
H1187       H  0.43074234  0.13274905  0.52318326     0.18700
H1188       H  0.49150845  0.13306244  0.39570206     0.18700
C1189       C  0.29914833  0.04577730  0.42979353    -0.07100
C1190       C  0.29808467  0.02153460  0.46191807    -0.18200
C1191       C  0.27064636  0.02614938  0.49116095     0.10100
C1192       C  0.24408566  0.05655609  0.48975905    -0.07000
C1193       C  0.24290280  0.07855688  0.45608809    -0.18300
C1194       C  0.26964055  0.07340658  0.42628844     0.10100
S1195       S  0.27252551  0.99407051  0.53138106    -0.33200
S1196       S  0.26810220  0.10682795  0.38729291    -0.33200
H1197       H  0.26455384  0.07852858  0.35972773     0.28100
H1198       H  0.23605781  0.00338213  0.54575456     0.28100
H1199       H  0.31968097  0.99953982  0.46497264     0.18700
H1200       H  0.22368540  0.10277188  0.45468999     0.18700
C1201       C  0.20203055  0.04037268  0.68343495    -0.07100
C1202       C  0.18667933  0.00553996  0.67230759    -0.18200
C1203       C  0.17847109  0.97668603  0.69907396     0.10100
C1204       C  0.18523437  0.98218087  0.73839395    -0.07000
C1205       C  0.20347448  0.01544167  0.74924212    -0.18300
C1206       C  0.21237609  0.04411369  0.72255069     0.10100
S1207       S  0.15695593  0.93406622  0.68168130    -0.33200
S1208       S  0.23566266  0.08514734  0.74129347    -0.33200
H1209       H  0.26344446  0.08625441  0.71218831     0.28100
H1210       H  0.16760594  0.91105613  0.71291041     0.28100
H1211       H  0.17942136  0.00119095  0.64272773     0.18700
H1212       H  0.20835608  0.02042313  0.77924751     0.18700
C1213       C  0.10980027  0.24007794  0.45109071    -0.07100
C1214       C  0.14945709  0.23679579  0.44463085    -0.18200
C1215       C  0.17280667  0.21281005  0.46692338     0.10100
C1216       C  0.15653688  0.19086678  0.49685960    -0.07000
C1217       C  0.11662875  0.19312919  0.50229481    -0.18300
C1218       C  0.09320287  0.21710076  0.48004404     0.10100
S1219       S  0.22321809  0.21293580  0.45626393    -0.33200
S1220       S  0.04260631  0.21920943  0.49106476    -0.33200
H1221       H  0.04147117  0.18773508  0.51592232     0.28100
H1222       H  0.23343911  0.22286249  0.49352097     0.28100
H1223       H  0.16269890  0.25372301  0.42238088     0.18700
H1224       H  0.10358177  0.17646575  0.52480030     0.18700
C1225       C  0.12076243  0.23290832  0.74138905    -0.07100
C1226       C  0.11019270  0.19494300  0.73588235    -0.18200
C1227       C  0.12201894  0.17459893  0.70370929     0.10100
C1228       C  0.14399271  0.19292285  0.67533726    -0.07000
C1229       C  0.15208852  0.23179243  0.67959374    -0.18300
C1230       C  0.14137046  0.25168902  0.71246780     0.10100
S1231       S  0.11239973  0.12449136  0.70163485    -0.33200
S1232       S  0.15430925  0.30072303  0.71721173    -0.33200
H1233       H  0.17797161  0.30294582  0.68475241     0.28100
H1234       H  0.09175182  0.12152720  0.73599330     0.28100
H1235       H  0.09455342  0.18039494  0.75813138     0.18700
H1236       H  0.16892546  0.24605128  0.65794651     0.18700
C1237       C  0.42491761  0.11040059  0.62867710    -0.07100
C1238       C  0.40915197  0.08415719  0.60393534    -0.18200
C1239       C  0.36984866  0.08106214  0.60132957     0.10100
C1240       C  0.34694487  0.10400237  0.62458753    -0.07000
C1241       C  0.36295780  0.12588349  0.65325990    -0.18300
C1242       C  0.40222034  0.12982195  0.65515327     0.10100
S1243       S  0.35055152  0.05095807  0.56531130    -0.33200
S1244       S  0.42122936  0.16329727  0.68828700    -0.33200
H1245       H  0.45821309  0.14740819  0.68982014     0.28100
H1246       H  0.31481519  0.04652717  0.58327915     0.28100
H1247       H  0.42722334  0.06915125  0.58385770     0.18700
H1248       H  0.34485192  0.14345513  0.67108899     0.18700
C1249       C  0.28930617  0.24887720  0.59651266    -0.07100
C1250       C  0.26428123  0.27963842  0.60075915    -0.18200
C1251       C  0.27789980  0.31464777  0.61289591     0.10100
C1252       C  0.31729086  0.31884951  0.62039508    -0.07000
C1253       C  0.34275337  0.28937925  0.61136320    -0.18300
C1254       C  0.32909889  0.25431556  0.59969081     0.10100
S1255       S  0.24461476  0.35291441  0.62186910    -0.33200
S1256       S  0.36341312  0.21672324  0.59222531    -0.33200
H1257       H  0.34190854  0.19842095  0.56426637     0.28100
H1258       H  0.21117045  0.33337781  0.61231672     0.28100
H1259       H  0.23384928  0.27532059  0.59759577     0.18700
H1260       H  0.37299222  0.29229673  0.61720155     0.18700
C1261       C  0.05980451  0.42623421  0.30127957    -0.07100
C1262       C  0.08459781  0.41994150  0.27028029    -0.18200
C1263       C  0.09426740  0.44952910  0.24444009     0.10100
C1264       C  0.07950588  0.48660662  0.24978515    -0.07000
C1265       C  0.05216369  0.49183460  0.27865067    -0.18300
C1266       C  0.04137712  0.46212029  0.30332211     0.10100
S1267       S  0.12829034  0.44044350  0.20685432    -0.33200
S1268       S  0.00412831  0.47196771  0.33738930    -0.33200
H1269       H  0.98633708  0.43695439  0.33182220     0.28100
H1270       H  0.13167693  0.40118260  0.21305895     0.28100
H1271       H  0.09853368  0.39262950  0.26788299     0.18700
H1272       H  0.04039851  0.51987786  0.28323195     0.18700
C1273       C  0.06154943  0.67815593  0.19358803    -0.07100
C1274       C  0.07019455  0.71372543  0.20916209    -0.18200
C1275       C  0.04706961  0.74589337  0.20299201     0.10100
C1276       C  0.01357617  0.74347017  0.18088415    -0.07000
C1277       C  0.00317023  0.70753624  0.16745596    -0.18300
C1278       C  0.02649474  0.67507102  0.17365762     0.10100
S1279       S  0.06347946  0.79018990  0.22172303    -0.33200
S1280       S  0.01215550  0.63180526  0.15166443    -0.33200
H1281       H  0.01547111  0.61045135  0.18556572     0.28100
H1282       H  0.02725324  0.80775480  0.22303813     0.28100
H1283       H  0.09640469  0.71709818  0.22506747     0.18700
H1284       H  0.97824705  0.70523760  0.14942477     0.18700
C1285       C  0.24864815  0.43302697  0.10914451    -0.07100
C1286       C  0.22392301  0.45833080  0.09012334    -0.18200
C1287       C  0.20060756  0.48370370  0.10994821     0.10100
C1288       C  0.20320531  0.48583586  0.15018025    -0.07000
C1289       C  0.22639335  0.45915596  0.16939058    -0.18300
C1290       C  0.24809306  0.43224466  0.14955339     0.10100
S1291       S  0.16764075  0.51157217  0.08170687    -0.33200
S1292       S  0.27326859  0.39723023  0.17777514    -0.33200
H1293       H  0.26364499  0.36702798  0.15394799     0.28100
H1294       H  0.13647137  0.50505465  0.10639224     0.28100
H1295       H  0.22276603  0.45867522  0.05930911     0.18700
H1296       H  0.22773147  0.45914002  0.20020186     0.18700
C1297       C  0.23201308  0.73490055  0.09928650    -0.07100
C1298       C  0.19220133  0.73059187  0.09889408    -0.18200
C1299       C  0.17542954  0.69555072  0.10699350     0.10100
C1300       C  0.19886618  0.66457379  0.11811812    -0.07000
C1301       C  0.23879112  0.66810054  0.11449831    -0.18300
C1302       C  0.25556893  0.70268532  0.10451863     0.10100
S1303       S  0.12400053  0.69349844  0.10685809    -0.33200
S1304       S  0.30706339  0.70454496  0.10325874    -0.33200
H1305       H  0.30986313  0.73331653  0.07553866     0.28100
H1306       H  0.12299845  0.65771762  0.08979466     0.28100
H1307       H  0.17399597  0.75502530  0.09354005     0.18700
H1308       H  0.25716657  0.64456147  0.12271322     0.18700
C1309       C  0.27692131  0.59542945  0.27672074    -0.07100
C1310       C  0.27488756  0.59186506  0.31657541    -0.18200
C1311       C  0.30622875  0.60057605  0.33961194     0.10100
C1312       C  0.34022599  0.61416392  0.32277349    -0.07000
C1313       C  0.34348363  0.61397571  0.28278157    -0.18300
C1314       C  0.31230680  0.60440312  0.25959251     0.10100
S1315       S  0.30021832  0.59720211  0.39056797    -0.33200
S1316       S  0.31831483  0.60707119  0.20856256    -0.33200
H1317       H  0.28843571  0.58255548  0.19929697     0.28100
H1318       H  0.33949262  0.59498198  0.39896094     0.28100
H1319       H  0.24799185  0.58421576  0.32999894     0.18700
H1320       H  0.36948607  0.62426535  0.26950850     0.18700
C1321       C  0.27258429  0.68640891  0.51519370    -0.07100
C1322       C  0.30864000  0.66947523  0.52081970    -0.18200
C1323       C  0.33989144  0.67775604  0.49672693     0.10100
C1324       C  0.33485278  0.70201789  0.46455713    -0.07000
C1325       C  0.30034292  0.72287367  0.46236418    -0.18300
C1326       C  0.26979396  0.71593749  0.48781767     0.10100
S1327       S  0.38505930  0.65557112  0.50808962    -0.33200
S1328       S  0.22704660  0.74441270  0.48309064    -0.33200
H1329       H  0.21089929  0.73360936  0.51830671     0.28100
H1330       H  0.40720033  0.68600694  0.49457607     0.28100
H1331       H  0.31174081  0.64730442  0.54222035     0.18700
H1332       H  0.29613248  0.74319877  0.43938588     0.18700
C1333       C  0.08190169  0.70599963  0.55659219    -0.07100
C1334       C  0.08756213  0.73226373  0.58557849    -0.18200
C1335       C  0.05875128  0.75827790  0.59583778     0.10100
C1336       C  0.02223907  0.75765106  0.57792182    -0.07000
C1337       C  0.01841070  0.73490181  0.54568909    -0.18300
C1338       C  0.04795041  0.70967833  0.53460359     0.10100
S1339       S  0.06956041  0.79005015  0.63418472    -0.33200
S1340       S  0.04072988  0.68272456  0.49214646    -0.33200
H1341       H  0.07899757  0.68605082  0.48018306     0.28100
H1342       H  0.04248809  0.81785119  0.62354605     0.28100
H1343       H  0.11376764  0.73121661  0.60187754     0.18700
H1344       H  0.99152803  0.73483228  0.53057949     0.18700
C1345       C  0.26285865  0.54960431  0.60398409    -0.07100
C1346       C  0.27199789  0.51467050  0.58772416    -0.18200
C1347       C  0.29269320  0.48689485  0.60781711     0.10100
C1348       C  0.30615476  0.49484947  0.64492883    -0.07000
C1349       C  0.29824689  0.53068456  0.66046283    -0.18300
C1350       C  0.27692101  0.55802692  0.64043236     0.10100
S1351       S  0.29891718  0.44096274  0.58621511    -0.33200
S1352       S  0.26972140  0.60340608  0.66236501    -0.33200
H1353       H  0.26945394  0.62443659  0.62809561     0.28100
H1354       H  0.28013890  0.44899296  0.55168589     0.28100
H1355       H  0.26149704  0.50867735  0.55960949     0.18700
H1356       H  0.30882092  0.53761579  0.68843739     0.18700
C1357       C  0.08653344  0.55650612  0.62272217    -0.07100
C1358       C  0.05761144  0.57804882  0.64013560    -0.18200
C1359       C  0.02325965  0.56119192  0.65210413     0.10100
C1360       C  0.01723317  0.52225719  0.64545632    -0.07000
C1361       C  0.04745572  0.50020516  0.63166405    -0.18300
C1362       C  0.08226748  0.51672196  0.62135551     0.10100
S1363       S  0.98692188  0.59147986  0.67223936    -0.33200
S1364       S  0.11959697  0.48571560  0.60460620    -0.33200
H1365       H  0.14984654  0.51062697  0.61178471     0.28100
H1366       H  0.97244561  0.56421050  0.69778096     0.28100
H1367       H  0.06035678  0.60849399  0.64152045     0.18700
H1368       H  0.04349263  0.47014123  0.62767681     0.18700
C1369       C  0.14363786  0.63620953  0.41205782    -0.07100
C1370       C  0.11052593  0.62286018  0.39457856    -0.18200
C1371       C  0.10932031  0.61972069  0.35521595     0.10100
C1372       C  0.14135287  0.63130479  0.33401551    -0.07000
C1373       C  0.17175047  0.64979790  0.35107601    -0.18300
C1374       C  0.17334833  0.65212573  0.39023671     0.10100
S1375       S  0.06900702  0.59630651  0.33427776    -0.33200
S1376       S  0.21562589  0.67176398  0.41082885    -0.33200
H1377       H  0.19611649  0.68330731  0.44375649     0.28100
H1378       H  0.07379412  0.61150470  0.29739143     0.28100
H1379       H  0.08770317  0.61070225  0.41161891     0.18700
H1380       H  0.19605832  0.65897461  0.33414901     0.18700
C1381       C  0.15981672  0.49004763  0.47174045    -0.07100
C1382       C  0.14938446  0.49010269  0.43319232    -0.18200
C1383       C  0.14048241  0.45653938  0.41434325     0.10100
C1384       C  0.13877914  0.42191471  0.43501505    -0.07000
C1385       C  0.15210972  0.42146446  0.47278424    -0.18300
C1386       C  0.16414037  0.45473481  0.49067859     0.10100
S1387       S  0.12856754  0.46071934  0.36469152    -0.33200
S1388       S  0.18192860  0.45053073  0.53842872    -0.33200
H1389       H  0.21324774  0.47403236  0.53115363     0.28100
H1390       H  0.14461948  0.42559816  0.35480173     0.28100
H1391       H  0.14744873  0.51678425  0.41770196     0.18700
H1392       H  0.15124344  0.39528952  0.48914871     0.18700
loop_ 
_geom_bond_atom_site_label_1 
_geom_bond_atom_site_label_2 
_geom_bond_distance 
_geom_bond_site_symmetry_2 
_ccdc_geom_bond_type 
O1          Cr19   1.991       .  S
O1            C9   1.267       .  A
O2          Cr19   1.954       .  S
O2            C3   1.251       .  A
C3            O4   1.277       .  A
C3         C1321   1.491       .  S
O4          Cr20   2.066       .  S
O5          Cr20   2.016       .  S
O5            C6   1.269       .  A
C6            O7   1.266       .  A
C6         C1333   1.508       .  S
O7          Cr21   2.018       .  S
O8          Cr21   1.941       .  S
O8            C9   1.252       .  A
C9         C1369   1.439       .  S
O10         Cr19   1.994       .  S
O10          C18   1.258       .  A
O11         Cr19   1.993       .  S
O11          C12   1.263       .  A
C12          O13   1.263       .  A
C12        C1345   1.475       .  S
O13         Cr20   1.984       .  S
O14         Cr20   2.061       .  S
O14          C15   1.281       .  A
C15          O16   1.256       .  A
C15        C1357   1.483       .  S
O16         Cr21   1.945       .  S
O17         Cr21   2.027       .  S
O17          C18   1.267       .  A
C18        C1381   1.493       .  S
Cr19         O22   1.767       .  S
Cr20         O22   1.775       .  S
Cr21         O22   1.766       .  S
O23         Cr41   1.997       .  S
O23          C31   1.269       .  A
O24         Cr41   1.955       .  S
O24          C25   1.250       .  A
C25          O26   1.277       .  A
C25        C1264   1.499       .  S
O26         Cr42   2.074       .  S
O27         Cr42   2.028       .  S
O27          C28   1.274       .  A
C28          O29   1.268       .  A
C28        C1273   1.514       .  S
O29         Cr43   2.011       .  S
O30         Cr43   1.932       .  S
O30          C31   1.250       .  A
C31        C1372   1.427       .  S
O32         Cr41   1.982       .  S
O32          C40   1.255       .  A
O33         Cr41   2.015       .  S
O33          C34   1.271       .  A
C34          O35   1.260       .  A
C34        C1288   1.491       .  S
O35         Cr42   1.969       .  S
O36         Cr42   2.053       .  S
O36          C37   1.277       .  A
C37          O38   1.256       .  A
C37        C1300   1.480       .  S
O38         Cr43   1.950       .  S
O39         Cr43   2.022       .  S
O39          C40   1.264       .  A
C40        C1309   1.482       .  S
Cr41         O44   1.765       .  S
Cr42         O44   1.770       .  S
Cr43         O44   1.760       .  S
O45         Cr63   1.999       .  S
O45          C53   1.269       .  A
O46         Cr63   1.938       .  S
O46          C47   1.243       .  A
C47          O48   1.282       .  A
C47        C1192   1.493       .  S
O48         Cr64   2.090       .  S
O49         Cr64   2.023       .  S
O49          C50   1.272       .  A
C50          O51   1.264       .  A
C50        C1201   1.513       .  S
O51         Cr65   2.011       .  S
O52         Cr65   1.933       .  S
O52          C53   1.249       .  A
C53        C1240   1.430       .  S
O54         Cr63   1.972       .  S
O54          C62   1.254       .  A
O55         Cr63   2.029       .  S
O55          C56   1.271       .  A
C56          O57   1.263       .  A
C56        C1216   1.503       .  S
O57         Cr64   1.976       .  S
O58         Cr64   2.076       .  S
O58          C59   1.286       .  A
C59          O60   1.253       .  A
C59        C1228   1.489       .  S
O60         Cr65   1.934       .  S
O61         Cr65   2.019       .  S
O61          C62   1.265       .  A
C62        C1249   1.466       .  S
Cr63         O66   1.753       .  S
Cr64         O66   1.758       .  S
Cr65         O66   1.753       .  S
O67         Cr85   1.994       .  S
O67          C75   1.268       .  A
O68         Cr85   1.948       .  S
O68          C69   1.249       .  A
C69          O70   1.276       .  A
C69        C1132   1.494       .  S
O70         Cr86   2.067       .  S
O71         Cr86   2.027       .  S
O71          C72   1.271       .  A
C72          O73   1.265       .  A
C72        C1141   1.506       .  S
O73         Cr87   1.997       .  S
O74         Cr87   1.928       .  S
O74          C75   1.249       .  A
C75        C1237   1.425       .  S
O76         Cr85   1.987       .  S
O76          C84   1.256       .  A
O77         Cr85   1.998       .  S
O77          C78   1.268       .  A
C78          O79   1.263       .  A
C78        C1156   1.482       .  S
O79         Cr86   1.976       .  S
O80         Cr86   2.057       .  S
O80          C81   1.278       .  A
C81          O82   1.257       .  A
C81        C1168   1.476       .  S
O82         Cr87   1.950       .  S
O83         Cr87   2.017       .  S
O83          C84   1.263       .  A
C84        C1177   1.483       .  S
Cr85         O88   1.761       .  S
Cr86         O88   1.772       .  S
Cr87         O88   1.758       .  S
O89        Cr107   2.010       .  S
O89          C97   1.272       .  A
O90        Cr107   1.942       .  S
O90          C91   1.247       .  A
C91          O92   1.278       .  A
C91        C1060   1.483       .  S
O92        Cr108   2.071       .  S
O93        Cr108   2.011       .  S
O93          C94   1.267       .  A
C94          O95   1.266       .  A
C94        C1069   1.511       .  S
O95        Cr109   2.010       .  S
O96        Cr109   1.927       .  S
O96          C97   1.248       .  A
C97        C1105   1.437       .  S
O98        Cr107   1.979       .  S
O98         C106   1.255       .  A
O99        Cr107   2.024       .  S
O99         C100   1.270       .  A
C100        O101   1.259       .  A
C100       C1081   1.479       .  S
O101       Cr108   1.962       .  S
O102       Cr108   2.065       .  S
O102        C103   1.282       .  A
C103        O104   1.250       .  A
C103       C1093   1.490       .  S
O104       Cr109   1.920       .  S
O105       Cr109   2.020       .  S
O105        C106   1.265       .  A
C106       C1117   1.474       .  S
Cr107       O110   1.750       .  S
Cr108       O110   1.759       .  S
Cr109       O110   1.748       .  S
O111       Cr129   2.002       .  S
O111        C119   1.270       .  A
O112       Cr129   1.958       .  S
O112        C113   1.249       .  A
C113        O114   1.274       .  A
C113        C997   1.492       .  S
O114       Cr130   2.065       .  S
O115       Cr130   2.012       .  S
O115        C116   1.268       .  A
C116        O117   1.269       .  A
C116       C1009   1.512       .  S
O117       Cr131   2.021       .  S
O118       Cr131   1.928       .  S
O118        C119   1.245       .  A
C119       C1108   1.430       .  S
O120       Cr129   1.976       .  S
O120        C128   1.255       .  A
O121       Cr129   2.028       .  S
O121        C122   1.273       .  A
C122        O123   1.263       .  A
C122       C1024   1.480       .  S
O123       Cr130   1.964       .  S
O124       Cr130   2.072       .  S
O124        C125   1.282       .  A
C125        O126   1.252       .  A
C125       C1033   1.485       .  S
O126       Cr131   1.934       .  S
O127       Cr131   2.033       .  S
O127        C128   1.268       .  A
C128       C1045   1.483       .  S
Cr129       O132   1.758       .  S
Cr130       O132   1.769       .  S
Cr131       O132   1.761       .  S
O133       Cr151   1.960       .  S
O133        C141   1.264       .  A
O134       Cr151   1.967       .  S
O134        C135   1.241       .  A
C135        O136   1.267       .  A
C135        C940   1.495       .  S
O136       Cr152   2.060       .  S
O137       Cr152   2.013       .  S
O137        C138   1.268       .  A
C138        O139   1.266       .  A
C138        C949   1.516       .  S
O139       Cr153   2.012       .  S
O140       Cr153   1.988       .  S
O140        C141   1.272       .  A
C141        C985   1.463       .  S
O142       Cr151   1.983       .  S
O142        C150   1.247       .  A
O143       Cr151   1.954       .  S
O143        C144   1.268       .  A
C144        O145   1.282       .  A
C144        C961   1.473       .  S
O145       Cr152   2.039       .  S
O146       Cr152   2.024       .  S
O146        C147   1.271       .  A
C147        O148   1.258       .  A
C147        C973   1.479       .  S
O148       Cr153   1.958       .  S
O149       Cr153   2.021       .  S
O149        C150   1.259       .  A
C150       C1165   1.481   1_565  S
Cr151       O154   1.776       .  S
Cr152       O154   1.771       .  S
Cr153       O154   1.769       .  S
O155       Cr173   1.997       .  S
O155        C163   1.268       .  A
O156       Cr173   1.954       .  S
O156        C157   1.250       .  A
C157        O158   1.274       .  A
C157       C1144   1.491       .  S
O158       Cr174   2.064       .  S
O159       Cr174   2.027       .  S
O159        C160   1.276       .  A
C160        O161   1.270       .  A
C160        C889   1.517       .  S
O161       Cr175   2.020       .  S
O162       Cr175   1.942       .  S
O162        C163   1.250       .  A
C163        C988   1.440       .  S
O164       Cr173   1.975       .  S
O164        C172   1.254       .  A
O165       Cr173   2.016       .  S
O165        C166   1.269       .  A
C166        O167   1.266       .  A
C166        C901   1.494       .  S
O167       Cr174   1.982       .  S
O168       Cr174   2.045       .  S
O168        C169   1.273       .  A
C169        O170   1.254       .  A
C169        C916   1.474       .  S
O170       Cr175   1.949       .  S
O171       Cr175   2.031       .  S
O171        C172   1.268       .  A
C172        C925   1.483       .  S
Cr173       O176   1.761       .  S
Cr174       O176   1.773       .  S
Cr175       O176   1.758       .  S
O177       Cr195   1.989       .  S
O177        C185   1.267       .  A
O178       Cr195   1.942       .  S
O178        C179   1.249       .  A
C179        O180   1.282       .  A
C179        C829   1.496   1_554  S
O180       Cr196   2.084       .  S
O181       Cr196   2.031       .  S
O181        C182   1.273       .  A
C182        O183   1.267       .  A
C182        C844   1.520       .  S
O183       Cr197   2.009       .  S
O184       Cr197   1.947       .  S
O184        C185   1.252       .  A
C185        C880   1.444       .  S
O186       Cr195   1.971       .  S
O186        C194   1.253       .  A
O187       Cr195   1.996       .  S
O187        C188   1.262       .  A
C188        O189   1.264       .  A
C188        C856   1.492   1_554  S
O189       Cr196   1.990       .  S
O190       Cr196   2.065       .  S
O190        C191   1.281       .  A
C191        O192   1.256       .  A
C191        C868   1.492       .  S
O192       Cr197   1.939       .  S
O193       Cr197   2.025       .  S
O193        C194   1.267       .  A
C194       C1297   1.473       .  S
Cr195       O198   1.760       .  S
Cr196       O198   1.766       .  S
Cr197       O198   1.757       .  S
O199       Cr217   1.999       .  S
O199        C207   1.268       .  A
O200       Cr217   1.957       .  S
O200        C201   1.251   1_455  A
C201        O202   1.276       .  A
C201       C1276   1.497   1_655  S
O202       Cr218   2.070       .  S
O203       Cr218   2.027       .  S
O203        C204   1.276       .  A
C204        O205   1.270       .  A
C204        C781   1.511       .  S
O205       Cr219   2.017       .  S
O206       Cr219   1.935   1_455  S
O206        C207   1.250       .  A
C207        C877   1.434       .  S
O208       Cr217   1.970   1_655  S
O208        C216   1.253   1_655  A
O209       Cr217   2.010   1_655  S
O209        C210   1.268       .  A
C210        O211   1.265       .  A
C210        C793   1.488       .  S
O211       Cr218   1.976       .  S
O212       Cr218   2.050       .  S
O212        C213   1.274       .  A
C213        O214   1.252       .  A
C213        C808   1.470       .  S
O214       Cr219   1.947       .  S
O215       Cr219   2.011       .  S
O215        C216   1.263   1_655  A
C216        C820   1.472   1_554  S
Cr217       O220   1.762   1_455  S
Cr218       O220   1.772       .  S
Cr219       O220   1.755       .  S
O221       Cr239   1.994   1_565  S
O221        C229   1.266       .  A
O222       Cr239   1.949   1_565  S
O222        C223   1.250   1_565  A
C223        O224   1.281       .  A
C223        C841   1.497   1_545  S
O224       Cr240   2.084       .  S
O225       Cr240   2.000       .  S
O225        C226   1.266       .  A
C226        O227   1.274       .  A
C226       C1189   1.510       .  S
O227       Cr241   2.038       .  S
O228       Cr241   1.944   1_565  S
O228        C229   1.250       .  A
C229        C769   1.441       .  S
O230       Cr239   1.975       .  S
O230        C238   1.256   1_545  A
O231       Cr239   2.014       .  S
O231        C232   1.267       .  A
C232        O233   1.262       .  A
C232       C1021   1.493       .  S
O233       Cr240   1.973       .  S
O234       Cr240   2.074       .  S
O234        C235   1.281       .  A
C235        O236   1.250       .  A
C235       C1180   1.483       .  S
O236       Cr241   1.942       .  S
O237       Cr241   2.035   1_565  S
O237        C238   1.270       .  A
C238        C976   1.481       .  S
Cr239       O242   1.761       .  S
Cr240       O242   1.770       .  S
Cr241       O242   1.759       .  S
O243       Cr261   1.963       .  S
O243        C251   1.261       .  A
O244       Cr261   1.987       .  S
O244        C245   1.254       .  A
C245        O246   1.271       .  A
C245        C952   1.506       .  S
O246       Cr262   2.053       .  S
O247       Cr262   2.015       .  S
O247        C248   1.266       .  A
C248        O249   1.263       .  A
C248       C1324   1.511       .  S
O249       Cr263   2.003       .  S
O250       Cr263   1.974       .  S
O250        C251   1.265       .  A
C251        C772   1.462       .  S
O252       Cr261   1.994       .  S
O252        C260   1.256       .  A
O253       Cr261   1.971       .  S
O253        C254   1.266       .  A
C254        O255   1.272       .  A
C254       C1084   1.486       .  S
O255       Cr262   2.024       .  S
O256       Cr262   2.022       .  S
O256        C257   1.271       .  A
C257        O258   1.261       .  A
C257       C1312   1.481       .  S
O258       Cr263   1.979       .  S
O259       Cr263   2.003       .  S
O259        C260   1.263       .  A
C260        C865   1.491       .  S
Cr261       O264   1.775       .  S
Cr262       O264   1.768       .  S
Cr263       O264   1.770       .  S
O265       Cr283   1.967       .  S
O265        C273   1.260       .  A
O266       Cr283   1.979       .  S
O266        C267   1.256       .  A
C267        O268   1.278       .  A
C267        C892   1.498       .  S
O268       Cr284   2.051       .  S
O269       Cr284   2.051       .  S
O269        C270   1.276       .  A
C270        O271   1.259       .  A
C270        C733   1.503       .  S
O271       Cr285   1.972       .  S
O272       Cr285   1.956       .  S
O272        C273   1.255       .  A
C273        C757   1.433       .  S
O274       Cr283   1.974       .  S
O274        C282   1.257       .  A
O275       Cr283   1.959       .  S
O275        C276   1.257       .  A
C276        O277   1.272       .  A
C276        C853   1.480       .  S
O277       Cr284   2.030       .  S
O278       Cr284   2.034       .  S
O278        C279   1.270       .  A
C279        O280   1.255       .  A
C279        C748   1.484       .  S
O280       Cr285   1.974       .  S
O281       Cr285   1.997       .  S
O281        C282   1.265       .  A
C282       C1096   1.489   1_556  S
Cr283       O286   1.767       .  S
Cr284       O286   1.766       .  S
Cr285       O286   1.771       .  S
O287       Cr305   1.961       .  S
O287        C295   1.260       .  A
O288       Cr305   1.974   1_554  S
O288        C289   1.248   1_554  A
C289        O290   1.267       .  A
C289       C1072   1.489   1_556  S
O290       Cr306   2.043       .  S
O291       Cr306   2.007       .  S
O291        C292   1.268       .  A
C292        O293   1.263       .  A
C292        C709   1.505       .  S
O293       Cr307   2.006       .  S
O294       Cr307   1.966       .  S
O294        C295   1.264       .  A
C295        C760   1.444       .  S
O296       Cr305   1.985       .  S
O296        C304   1.252       .  A
O297       Cr305   1.959       .  S
O297        C298   1.262       .  A
C298        O299   1.277       .  A
C298        C796   1.477   1_556  S
O299       Cr306   2.033       .  S
O300       Cr306   2.017       .  S
O300        C301   1.271       .  A
C301        O302   1.258       .  A
C301        C721   1.471       .  S
O302       Cr307   1.960       .  S
O303       Cr307   2.007       .  S
O303        C304   1.262       .  A
C304        C913   1.474       .  S
Cr305       O308   1.778       .  S
Cr306       O308   1.769       .  S
Cr307       O308   1.768       .  S
O309       Cr327   1.986   1_556  S
O309        C317   1.266       .  A
O310       Cr327   1.953   1_556  S
O310        C311   1.248   1_556  A
C311        O312   1.276       .  A
C311        C688   1.494       .  S
O312       Cr328   2.069       .  S
O313       Cr328   2.012       .  S
O313        C314   1.270       .  A
C314        O315   1.270       .  A
C314       C1000   1.505       .  S
O315       Cr329   2.022       .  S
O316       Cr329   1.939   1_556  S
O316        C317   1.250       .  A
C317        C697   1.436       .  S
O318       Cr327   1.988       .  S
O318        C326   1.257   1_554  A
O319       Cr327   2.013       .  S
O319        C320   1.270       .  A
C320        O321   1.260       .  A
C320       C1285   1.490       .  S
O321       Cr328   1.973       .  S
O322       Cr328   2.043       .  S
O322        C323   1.275       .  A
C323        O324   1.258       .  A
C323       C1120   1.470       .  S
O324       Cr329   1.959       .  S
O325       Cr329   2.038   1_556  S
O325        C326   1.268       .  A
C326        C745   1.494       .  S
Cr327       O330   1.762       .  S
Cr328       O330   1.772       .  S
Cr329       O330   1.765       .  S
O331       Cr349   1.999       .  S
O331        C339   1.268       .  A
O332       Cr349   1.955       .  S
O332        C333   1.251       .  A
C333        O334   1.273       .  A
C333        C736   1.485       .  S
O334       Cr350   2.052       .  S
O335       Cr350   2.019       .  S
O335        C336   1.270       .  A
C336        O337   1.268       .  A
C336       C1129   1.509       .  S
O337       Cr351   2.021       .  S
O338       Cr351   1.935       .  S
O338        C339   1.250       .  A
C339        C700   1.433       .  S
O340       Cr349   1.985       .  S
O340        C348   1.255       .  A
O341       Cr349   2.007       .  S
O341        C342   1.268       .  A
C342        O343   1.261       .  A
C342       C1348   1.489       .  S
O343       Cr350   1.972       .  S
O344       Cr350   2.044       .  S
O344        C345   1.276       .  A
C345        O346   1.257       .  A
C345       C1252   1.471       .  S
O346       Cr351   1.951       .  S
O347       Cr351   2.024       .  S
O347        C348   1.265       .  A
C348        C676   1.484       .  S
Cr349       O352   1.765       .  S
Cr350       O352   1.772       .  S
Cr351       O352   1.760       .  S
O353       Cr371   1.968       .  S
O353        C361   1.262       .  A
O354       Cr371   1.988       .  S
O354        C355   1.255       .  A
C355        O356   1.278       .  A
C355        C637   1.510   1_455  S
O356       Cr372   2.060       .  S
O357       Cr372   2.031       .  S
O357        C358   1.269       .  A
C358        O359   1.262       .  A
C358        C685   1.510       .  S
O359       Cr373   1.991       .  S
O360       Cr373   1.956       .  S
O360        C361   1.259       .  A
C361        C661   1.441       .  S
O362       Cr371   1.982       .  S
O362        C370   1.256       .  A
O363       Cr371   1.962       .  S
O363        C364   1.261       .  A
C364        O365   1.271       .  A
C364        C652   1.476       .  S
O365       Cr372   2.023       .  S
O366       Cr372   2.034       .  S
O366        C367   1.273       .  A
C367        O368   1.257       .  A
C367        C673   1.483       .  S
O368       Cr373   1.966       .  S
O369       Cr373   2.009       .  S
O369        C370   1.265       .  A
C370       C1225   1.488       .  S
Cr371       O374   1.776       .  S
Cr372       O374   1.769       .  S
Cr373       O374   1.773       .  S
O375       Cr393   1.959   1_545  S
O375        C383   1.261       .  A
O376       Cr393   1.981       .  S
O376        C377   1.252       .  A
C377        O378   1.273       .  A
C377       C1204   1.490       .  S
O378       Cr394   2.042       .  S
O379       Cr394   2.043       .  S
O379        C380   1.273       .  A
C380        O381   1.259       .  A
C380        C832   1.513       .  S
O381       Cr395   1.984       .  S
O382       Cr395   1.966   1_545  S
O382        C383   1.263       .  A
C383        C664   1.433       .  S
O384       Cr393   1.981   1_545  S
O384        C392   1.251   1_545  A
O385       Cr393   1.947       .  S
O385        C386   1.259       .  A
C386        O387   1.275       .  A
C386        C613   1.476       .  S
O387       Cr394   2.036       .  S
O388       Cr394   2.003       .  S
O388        C389   1.265       .  A
C389        O390   1.259       .  A
C389        C817   1.469       .  S
O390       Cr395   1.979       .  S
O391       Cr395   2.011       .  S
O391        C392   1.267       .  A
C392        C625   1.496   1_465  S
Cr393       O396   1.768       .  S
Cr394       O396   1.768       .  S
Cr395       O396   1.762       .  S
O397       Cr415   1.965       .  S
O397        C405   1.268       .  A
O398       Cr415   1.958       .  S
O398        C399   1.241       .  A
C399        O400   1.271       .  A
C399       C1336   1.504   1_655  S
O400       Cr416   2.069       .  S
O401       Cr416   2.024       .  S
O401        C402   1.272       .  A
C402        O403   1.260       .  A
C402        C937   1.516       .  S
O403       Cr417   1.988       .  S
O404       Cr417   1.971       .  S
O404        C405   1.270       .  A
C405        C601   1.465       .  S
O406       Cr415   1.983       .  S
O406        C414   1.247       .  A
O407       Cr415   1.963       .  S
O407        C408   1.272       .  A
C408        O409   1.281       .  A
C408        C616   1.469       .  S
O409       Cr416   2.023       .  S
O410       Cr416   2.033       .  S
O410        C411   1.271       .  A
C411        O412   1.252       .  A
C411        C928   1.476       .  S
O412       Cr417   1.938       .  S
O413       Cr417   2.008       .  S
O413        C414   1.255       .  A
C414        C724   1.484       .  S
Cr415       O418   1.772       .  S
Cr416       O418   1.771       .  S
Cr417       O418   1.768       .  S
O419       Cr437   1.999       .  S
O419        C427   1.269       .  A
O420       Cr437   1.952       .  S
O420        C421   1.245       .  A
C421        O422   1.281       .  A
C421        C712   1.509       .  S
O422       Cr438   2.098       .  S
O423       Cr438   2.019       .  S
O423        C424   1.273       .  A
C424        O425   1.271       .  A
C424        C577   1.509       .  S
O425       Cr439   2.022       .  S
O426       Cr439   1.932       .  S
O426        C427   1.247       .  A
C427        C604   1.431       .  S
O428       Cr437   1.971       .  S
O428        C436   1.254       .  A
O429       Cr437   2.024       .  S
O429        C430   1.265       .  A
C430        O431   1.259       .  A
C430        C649   1.466       .  S
O431       Cr438   1.966       .  S
O432       Cr438   2.074       .  S
O432        C433   1.282       .  A
C433        O434   1.250       .  A
C433        C589   1.480       .  S
O434       Cr439   1.937       .  S
O435       Cr439   2.027       .  S
O435        C436   1.267       .  A
C436       C1360   1.476   1_655  S
Cr437       O440   1.752       .  S
Cr438       O440   1.771       .  S
Cr439       O440   1.751       .  S
O441       Cr459   1.992   1_655  S
O441        C449   1.264       .  A
O442       Cr459   1.952   1_655  S
O442        C443   1.248   1_655  A
C443        O444   1.280       .  A
C443        C556   1.502       .  S
O444       Cr460   2.085       .  S
O445       Cr460   2.022       .  S
O445        C446   1.272       .  A
C446        O447   1.269       .  A
C446       C1261   1.510       .  S
O447       Cr461   2.015       .  S
O448       Cr461   1.932   1_655  S
O448        C449   1.246       .  A
C449        C565   1.432       .  S
O450       Cr459   1.976       .  S
O450        C458   1.255       .  A
O451       Cr459   2.017       .  S
O451        C452   1.269       .  A
C452        O453   1.267       .  A
C452       C1213   1.500       .  S
O453       Cr460   1.991       .  S
O454       Cr460   2.071       .  S
O454        C455   1.281       .  A
C455        O456   1.257       .  A
C455       C1384   1.491       .  S
O456       Cr461   1.957       .  S
O457       Cr461   2.032       .  S
O457        C458   1.268       .  A
C458        C592   1.483   1_455  S
Cr459       O462   1.764       .  S
Cr460       O462   1.773       .  S
Cr461       O462   1.764       .  S
O463       Cr481   1.997       .  S
O463        C471   1.267       .  A
O464       Cr481   1.942       .  S
O464        C465   1.249       .  A
C465        O466   1.281       .  A
C465        C580   1.494       .  S
O466       Cr482   2.081       .  S
O467       Cr482   1.999       .  S
O467        C468   1.265       .  A
C468        O469   1.270       .  A
C468       C1057   1.498       .  S
O469       Cr483   2.022       .  S
O470       Cr483   1.938       .  S
O470        C471   1.249       .  A
C471        C568   1.434       .  S
O472       Cr481   1.972       .  S
O472        C480   1.254       .  A
O473       Cr481   2.003       .  S
O473        C474   1.266       .  A
C474        O475   1.258       .  A
C474       C1153   1.485       .  S
O475       Cr482   1.968       .  S
O476       Cr482   2.070       .  S
O476        C477   1.281       .  A
C477        O478   1.253       .  A
C477       C1048   1.482       .  S
O478       Cr483   1.942       .  S
O479       Cr483   2.028       .  S
O479        C480   1.269       .  A
C480        C541   1.478       .  S
Cr481       O484   1.758       .  S
Cr482       O484   1.765       .  S
Cr483       O484   1.755       .  S
O485       Cr503   1.990       .  S
O485        C493   1.265       .  A
O486       Cr503   1.954       .  S
O486        C487   1.254       .  A
C487        O488   1.279       .  A
C487        C784   1.497   1_545  S
O488       Cr504   2.074       .  S
O489       Cr504   2.005       .  S
O489        C490   1.270       .  A
C490        O491   1.277       .  A
C490        C553   1.520       .  S
O491       Cr505   2.040       .  S
O492       Cr505   1.953       .  S
O492        C493   1.252       .  A
C493        C532   1.449       .  S
O494       Cr503   1.974       .  S
O494        C502   1.255       .  A
O495       Cr503   2.000       .  S
O495        C496   1.265       .  A
C496        O497   1.262       .  A
C496        C964   1.477   1_545  S
O497       Cr504   1.978       .  S
O498       Cr504   2.057       .  S
O498        C499   1.275       .  A
C499        O500   1.251       .  A
C499        C544   1.479       .  S
O500       Cr505   1.950       .  S
O501       Cr505   2.038       .  S
O501        C502   1.272       .  A
C502       C1036   1.483       .  S
Cr503       O506   1.764       .  S
Cr504       O506   1.773       .  S
Cr505       O506   1.757       .  S
O507       Cr525   1.969   1_554  S
O507        C515   1.263       .  A
O508       Cr525   1.963       .  S
O508        C509   1.241       .  A
C509        O510   1.272       .  A
C509       C1012   1.497       .  S
O510       Cr526   2.070       .  S
O511       Cr526   2.033       .  S
O511        C512   1.270       .  A
C512        O513   1.262       .  A
C512        C640   1.517       .  S
O513       Cr527   2.000       .  S
O514       Cr527   1.974   1_554  S
O514        C515   1.268       .  A
C515        C529   1.459       .  S
O516       Cr525   1.981   1_554  S
O516        C524   1.247       .  A
O517       Cr525   1.970       .  S
O517        C518   1.267       .  A
C518        O519   1.282       .  A
C518        C904   1.499       .  S
O519       Cr526   2.047       .  S
O520       Cr526   2.027       .  S
O520        C521   1.274       .  A
C521        O522   1.259       .  A
C521        C628   1.483       .  S
O522       Cr527   1.960       .  S
O523       Cr527   1.989   1_554  S
O523        C524   1.255       .  A
C524        C805   1.470   1_545  S
Cr525       O528   1.784       .  S
Cr526       O528   1.771       .  S
Cr527       O528   1.772       .  S
C529        C530   1.411       .  A
C529        C534   1.411       .  A
C530        C531   1.393       .  A
C530        H539   1.084       .  S
C531        C532   1.402       .  A
C531        S535   1.803       .  S
C532        C533   1.398       .  A
C533        C534   1.384       .  A
C533        H540   1.080       .  S
C534        S536   1.803       .  S
S535        H538   1.407       .  S
S536        H537   1.390       .  S
C541        C542   1.403       .  A
C541        C546   1.411       .  A
C542        C543   1.403       .  A
C542        H551   1.083       .  S
C543        C544   1.412       .  A
C543        S547   1.804       .  S
C544        C545   1.408       .  A
C545        C546   1.403       .  A
C545        H552   1.084       .  S
C546        S548   1.800       .  S
S547        H550   1.407       .  S
S548        H549   1.404       .  S
C553        C554   1.411       .  A
C553        C558   1.424       .  A
C554        C555   1.410       .  A
C554        H563   1.083       .  S
C555        C556   1.416   1_655  A
C555        S559   1.803       .  S
C556        C557   1.408       .  A
C557        C558   1.417   1_455  A
C557        H564   1.084       .  S
C558        S560   1.798   1_655  S
S559        H562   1.407       .  S
S560        H561   1.407       .  S
C565        C566   1.394       .  A
C565        C570   1.406       .  A
C566        C567   1.384       .  A
C566        H575   1.084       .  S
C567        C568   1.407       .  A
C567        S571   1.803       .  S
C568        C569   1.396       .  A
C569        C570   1.386       .  A
C569        H576   1.085       .  S
C570        S572   1.804       .  S
S571        H574   1.405       .  S
S572        H573   1.405       .  S
C577        C578   1.408       .  A
C577        C582   1.421       .  A
C578        C579   1.415       .  A
C578        H587   1.084       .  S
C579        C580   1.419       .  A
C579        S583   1.801       .  S
C580        C581   1.404       .  A
C581        C582   1.409       .  A
C581        H588   1.083       .  S
C582        S584   1.808       .  S
S583        H586   1.405       .  S
S584        H585   1.406       .  S
C589        C590   1.399       .  A
C589        C594   1.419       .  A
C590        C591   1.403       .  A
C590        H599   1.084       .  S
C591        C592   1.419       .  A
C591        S595   1.797       .  S
C592        C593   1.397   1_655  A
C593        C594   1.402   1_455  A
C593        H600   1.084       .  S
C594        S596   1.799   1_655  S
S595        H598   1.406       .  S
S596        H597   1.406   1_455  S
C601        C602   1.411       .  A
C601        C606   1.410       .  A
C602        C603   1.385       .  A
C602        H611   1.083       .  S
C603        C604   1.397       .  A
C603        S607   1.803       .  S
C604        C605   1.396       .  A
C605        C606   1.385       .  A
C605        H612   1.085       .  S
C606        S608   1.798       .  S
S607        H610   1.406       .  S
S608        H609   1.406       .  S
C613        C614   1.407       .  A
C613        C618   1.412       .  A
C614        C615   1.396   1_455  A
C614        H623   1.082       .  S
C615        C616   1.409       .  A
C615        S619   1.810       .  S
C616        C617   1.404   1_655  A
C617        C618   1.397       .  A
C617        H624   1.084       .  S
C618        S620   1.799       .  S
S619        H622   1.407       .  S
S620        H621   1.404       .  S
C625        C626   1.398   1_545  A
C625        C630   1.431       .  A
C626        C627   1.395   1_565  A
C626        H635   1.083       .  S
C627        C628   1.416       .  A
C627        S631   1.795   1_545  S
C628        C629   1.396       .  A
C629        C630   1.410       .  A
C629        H636   1.082       .  S
C630        S632   1.808       .  S
S631        H634   1.407   1_565  S
S632        H633   1.407       .  S
C637        C638   1.413       .  A
C637        C642   1.417       .  A
C638        C639   1.415       .  A
C638        H647   1.084       .  S
C639        C640   1.417       .  A
C639        S643   1.802       .  S
C640        C641   1.413       .  A
C641        C642   1.416       .  A
C641        H648   1.083       .  S
C642        S644   1.800   1_655  S
S643        H646   1.407       .  S
S644        H645   1.405       .  S
C649        C650   1.397       .  A
C649        C654   1.407       .  A
C650        C651   1.393   1_655  A
C650        H659   1.080       .  S
C651        C652   1.414       .  A
C651        S655   1.806       .  S
C652        C653   1.408   1_455  A
C653        C654   1.407       .  A
C653        H660   1.082       .  S
C654        S656   1.806       .  S
S655        H658   1.403       .  S
S656        H657   1.407       .  S
C661        C662   1.403       .  A
C661        C666   1.407       .  A
C662        C663   1.387       .  A
C662        H671   1.085       .  S
C663        C664   1.403       .  A
C663        S667   1.805       .  S
C664        C665   1.398       .  A
C665        C666   1.389       .  A
C665        H672   1.083       .  S
C666        S668   1.809       .  S
S667        H670   1.407       .  S
S668        H669   1.406       .  S
C673        C674   1.408       .  A
C673        C678   1.413       .  A
C674        C675   1.412       .  A
C674        H683   1.082       .  S
C675        C676   1.414       .  A
C675        S679   1.805       .  S
C676        C677   1.403       .  A
C677        C678   1.399       .  A
C677        H684   1.085       .  S
C678        S680   1.806       .  S
S679        H682   1.402       .  S
S680        H681   1.407       .  S
C685        C686   1.410       .  A
C685        C690   1.420       .  A
C686        C687   1.408       .  A
C686        H695   1.083       .  S
C687        C688   1.415   1_556  A
C687        S691   1.804       .  S
C688        C689   1.407       .  A
C689        C690   1.413   1_554  A
C689        H696   1.084       .  S
C690        S692   1.801   1_556  S
S691        H694   1.407       .  S
S692        H693   1.407   1_554  S
C697        C698   1.397       .  A
C697        C702   1.406       .  A
C698        C699   1.385       .  A
C698        H707   1.084       .  S
C699        C700   1.406       .  A
C699        S703   1.804       .  S
C700        C701   1.396       .  A
C701        C702   1.386       .  A
C701        H708   1.083       .  S
C702        S704   1.802       .  S
S703        H706   1.404       .  S
S704        H705   1.405       .  S
C709        C710   1.398       .  A
C709        C714   1.422       .  A
C710        C711   1.398       .  A
C710        H719   1.083       .  S
C711        C712   1.424       .  A
C711        S715   1.809       .  S
C712        C713   1.411       .  A
C713        C714   1.424       .  A
C713        H720   1.083       .  S
C714        S716   1.801       .  S
S715        H718   1.407       .  S
S716        H717   1.407       .  S
C721        C722   1.402       .  A
C721        C726   1.411       .  A
C722        C723   1.400       .  A
C722        H731   1.084       .  S
C723        C724   1.418       .  A
C723        S727   1.804       .  S
C724        C725   1.403       .  A
C725        C726   1.403       .  A
C725        H732   1.083       .  S
C726        S728   1.798       .  S
S727        H730   1.407       .  S
S728        H729   1.406       .  S
C733        C734   1.411       .  A
C733        C738   1.417       .  A
C734        C735   1.403       .  A
C734        H743   1.084       .  S
C735        C736   1.411       .  A
C735        S739   1.805       .  S
C736        C737   1.408       .  A
C737        C738   1.411       .  A
C737        H744   1.084       .  S
C738        S740   1.801       .  S
S739        H742   1.407       .  S
S740        H741   1.407       .  S
C745        C746   1.406       .  A
C745        C750   1.416       .  A
C746        C747   1.416       .  A
C746        H755   1.082   1_556  S
C747        C748   1.413       .  A
C747        S751   1.806       .  S
C748        C749   1.401       .  A
C749        C750   1.405       .  A
C749        H756   1.083       .  S
C750        S752   1.804       .  S
S751        H754   1.407   1_556  S
S752        H753   1.406       .  S
C757        C758   1.399       .  A
C757        C762   1.404       .  A
C758        C759   1.383       .  A
C758        H767   1.085       .  S
C759        C760   1.404       .  A
C759        S763   1.802       .  S
C760        C761   1.405       .  A
C761        C762   1.390       .  A
C761        H768   1.085       .  S
C762        S764   1.804       .  S
S763        H766   1.408   1_556  S
S764        H765   1.406       .  S
C769        C770   1.398       .  A
C769        C774   1.398       .  A
C770        C771   1.390       .  A
C770        H779   1.083       .  S
C771        C772   1.413       .  A
C771        S775   1.808       .  S
C772        C773   1.410       .  A
C773        C774   1.387       .  A
C773        H780   1.083       .  S
C774        S776   1.802       .  S
S775        H778   1.407       .  S
S776        H777   1.405       .  S
C781        C782   1.409       .  A
C781        C786   1.423       .  A
C782        C783   1.417       .  A
C782        H791   1.083       .  S
C783        C784   1.420       .  A
C783        S787   1.800       .  S
C784        C785   1.402       .  A
C785        C786   1.403       .  A
C785        H792   1.084   1_565  S
C786        S788   1.799       .  S
S787        H790   1.405       .  S
S788        H789   1.405   1_655  S
C793        C794   1.406       .  A
C793        C798   1.420       .  A
C794        C795   1.400       .  A
C794        H803   1.083       .  S
C795        C796   1.413       .  A
C795        S799   1.810       .  S
C796        C797   1.401       .  A
C797        C798   1.404       .  A
C797        H804   1.083   1_554  S
C798        S800   1.810       .  S
S799        H802   1.407       .  S
S800        H801   1.406   1_554  S
C805        C806   1.399       .  A
C805        C810   1.413       .  A
C806        C807   1.396       .  A
C806        H815   1.082   1_554  S
C807        C808   1.413       .  A
C807        S811   1.805       .  S
C808        C809   1.404       .  A
C809        C810   1.402       .  A
C809        H816   1.085       .  S
C810        S812   1.804   1_565  S
S811        H814   1.407       .  S
S812        H813   1.403       .  S
C817        C818   1.406       .  A
C817        C822   1.409       .  A
C818        C819   1.402       .  A
C818        H827   1.083       .  S
C819        C820   1.404       .  A
C819        S823   1.804   1_455  S
C820        C821   1.406       .  A
C821        C822   1.402       .  A
C821        H828   1.084   1_556  S
C822        S824   1.802       .  S
S823        H826   1.407       .  S
S824        H825   1.406       .  S
C829        C830   1.405       .  A
C829        C834   1.418       .  A
C830        C831   1.408       .  A
C830        H839   1.084   1_556  S
C831        C832   1.425       .  A
C831        S835   1.802       .  S
C832        C833   1.409       .  A
C833        C834   1.414       .  A
C833        H840   1.083       .  S
C834        S836   1.800       .  S
S835        H838   1.408       .  S
S836        H837   1.405       .  S
C841        C842   1.410   1_565  A
C841        C846   1.413       .  A
C842        C843   1.419   1_545  A
C842        H851   1.082       .  S
C843        C844   1.422       .  A
C843        S847   1.797       .  S
C844        C845   1.414       .  A
C845        C846   1.406       .  A
C845        H852   1.083       .  S
C846        S848   1.805       .  S
S847        H850   1.407       .  S
S848        H849   1.407       .  S
C853        C854   1.399       .  A
C853        C858   1.414       .  A
C854        C855   1.405       .  A
C854        H863   1.083       .  S
C855        C856   1.423       .  A
C855        S859   1.810       .  S
C856        C857   1.405       .  A
C857        C858   1.402       .  A
C857        H864   1.082   1_556  S
C858        S860   1.810       .  S
S859        H862   1.407       .  S
S860        H861   1.406   1_556  S
C865        C866   1.412       .  A
C865        C870   1.407       .  A
C866        C867   1.408       .  A
C866        H875   1.083       .  S
C867        C868   1.413       .  A
C867        S871   1.799       .  S
C868        C869   1.409       .  A
C869        C870   1.396       .  A
C869        H876   1.081       .  S
C870        S872   1.795       .  S
S871        H874   1.407       .  S
S872        H873   1.407       .  S
C877        C878   1.396       .  A
C877        C882   1.404       .  A
C878        C879   1.388       .  A
C878        H887   1.085       .  S
C879        C880   1.409       .  A
C879        S883   1.801       .  S
C880        C881   1.400       .  A
C881        C882   1.385       .  A
C881        H888   1.085       .  S
C882        S884   1.804       .  S
S883        H886   1.407       .  S
S884        H885   1.406       .  S
C889        C890   1.407       .  A
C889        C894   1.428       .  A
C890        C891   1.412       .  A
C890        H899   1.082       .  S
C891        C892   1.419       .  A
C891        S895   1.804       .  S
C892        C893   1.403       .  A
C893        C894   1.417       .  A
C893        H900   1.082       .  S
C894        S896   1.809       .  S
S895        H898   1.407       .  S
S896        H897   1.406       .  S
C901        C902   1.405       .  A
C901        C906   1.417   1_565  A
C902        C903   1.399       .  A
C902        H911   1.084       .  S
C903        C904   1.418   1_565  A
C903        S907   1.801       .  S
C904        C905   1.410       .  A
C905        C906   1.409       .  A
C905        H912   1.082       .  S
C906        S908   1.808       .  S
S907        H910   1.407       .  S
S908        H909   1.407       .  S
C913        C914   1.404       .  A
C913        C918   1.409       .  A
C914        C915   1.400       .  A
C914        H923   1.084       .  S
C915        C916   1.414       .  A
C915        S919   1.801       .  S
C916        C917   1.406       .  A
C917        C918   1.399       .  A
C917        H924   1.083       .  S
C918        S920   1.799       .  S
S919        H922   1.406       .  S
S920        H921   1.405       .  S
C925        C926   1.399       .  A
C925        C930   1.419       .  A
C926        C927   1.402       .  A
C926        H935   1.084       .  S
C927        C928   1.416       .  A
C927        S931   1.803       .  S
C928        C929   1.401       .  A
C929        C930   1.406       .  A
C929        H936   1.084       .  S
C930        S932   1.802       .  S
S931        H934   1.406       .  S
S932        H933   1.404       .  S
C937        C938   1.407       .  A
C937        C942   1.431       .  A
C938        C939   1.406       .  A
C938        H947   1.083       .  S
C939        C940   1.418       .  A
C939        S943   1.805       .  S
C940        C941   1.402       .  A
C941        C942   1.417       .  A
C941        H948   1.082       .  S
C942        S944   1.811       .  S
S943        H946   1.407       .  S
S944        H945   1.407       .  S
C949        C950   1.413       .  A
C949        C954   1.419       .  A
C950        C951   1.417       .  A
C950        H959   1.085       .  S
C951        C952   1.418       .  A
C951        S955   1.800       .  S
C952        C953   1.408       .  A
C953        C954   1.409       .  A
C953        H960   1.085       .  S
C954        S956   1.802       .  S
S955        H958   1.405       .  S
S956        H957   1.408       .  S
C961        C962   1.405       .  A
C961        C966   1.410       .  A
C962        C963   1.396       .  A
C962        H971   1.084       .  S
C963        C964   1.412       .  A
C963        S967   1.803   1_565  S
C964        C965   1.407       .  A
C965        C966   1.398       .  A
C965        H972   1.084       .  S
C966        S968   1.801       .  S
S967        H970   1.408   1_545  S
S968        H969   1.406       .  S
C973        C974   1.400       .  A
C973        C978   1.411       .  A
C974        C975   1.406       .  A
C974        H983   1.083       .  S
C975        C976   1.419       .  A
C975        S979   1.801       .  S
C976        C977   1.397       .  A
C977        C978   1.403       .  A
C977        H984   1.083   1_565  S
C978        S980   1.796   1_565  S
S979        H982   1.405       .  S
S980        H981   1.407       .  S
C985        C986   1.410       .  A
C985        C990   1.414       .  A
C986        C987   1.389       .  A
C986        H995   1.084       .  S
C987        C988   1.399       .  A
C987        S991   1.804       .  S
C988        C989   1.396       .  A
C989        C990   1.389       .  A
C989        H996   1.084       .  S
C990        S992   1.809       .  S
S991        H994   1.404       .  S
S992        H993   1.407       .  S
C997        C998   1.408       .  A
C997       C1002   1.413       .  A
C998        C999   1.412       .  A
C998       H1007   1.084       .  S
C999       C1000   1.418       .  A
C999       S1003   1.798       .  S
C1000      C1001   1.410       .  A
C1001      C1002   1.407       .  A
C1001      H1008   1.084       .  S
C1002      S1004   1.803       .  S
S1003      H1006   1.406       .  S
S1004      H1005   1.407       .  S
C1009      C1010   1.405       .  A
C1009      C1014   1.426       .  A
C1010      C1011   1.407   1_554  A
C1010      H1019   1.083       .  S
C1011      C1012   1.420       .  A
C1011      S1015   1.805       .  S
C1012      C1013   1.404   1_556  A
C1013      C1014   1.418       .  A
C1013      H1020   1.082       .  S
C1014      S1016   1.807       .  S
S1015      H1018   1.407       .  S
S1016      H1017   1.406       .  S
C1021      C1022   1.410       .  A
C1021      C1026   1.419       .  A
C1022      C1023   1.399       .  A
C1022      H1031   1.084       .  S
C1023      C1024   1.409       .  A
C1023      S1027   1.798       .  S
C1024      C1025   1.403       .  A
C1025      C1026   1.403       .  A
C1025      H1032   1.083       .  S
C1026      S1028   1.810       .  S
S1027      H1030   1.406       .  S
S1028      H1029   1.407       .  S
C1033      C1034   1.401       .  A
C1033      C1038   1.419       .  A
C1034      C1035   1.407       .  A
C1034      H1043   1.084       .  S
C1035      C1036   1.419       .  A
C1035      S1039   1.803       .  S
C1036      C1037   1.397       .  A
C1037      C1038   1.400       .  A
C1037      H1044   1.085       .  S
C1038      S1040   1.804       .  S
S1039      H1042   1.404       .  S
S1040      H1041   1.408       .  S
C1045      C1046   1.398       .  A
C1045      C1050   1.413       .  A
C1046      C1047   1.402       .  A
C1046      H1055   1.082       .  S
C1047      C1048   1.417       .  A
C1047      S1051   1.801       .  S
C1048      C1049   1.403       .  A
C1049      C1050   1.410       .  A
C1049      H1056   1.083       .  S
C1050      S1052   1.802       .  S
S1051      H1054   1.407       .  S
S1052      H1053   1.407       .  S
C1057      C1058   1.407       .  A
C1057      C1062   1.417       .  A
C1058      C1059   1.405       .  A
C1058      H1067   1.084       .  S
C1059      C1060   1.411       .  A
C1059      S1063   1.799       .  S
C1060      C1061   1.407       .  A
C1061      C1062   1.409       .  A
C1061      H1068   1.084       .  S
C1062      S1064   1.799       .  S
S1063      H1066   1.407       .  S
S1064      H1065   1.406       .  S
C1069      C1070   1.414       .  A
C1069      C1074   1.419       .  A
C1070      C1071   1.408       .  A
C1070      H1079   1.083       .  S
C1071      C1072   1.412       .  A
C1071      S1075   1.802   1_554  S
C1072      C1073   1.407       .  A
C1073      C1074   1.407       .  A
C1073      H1080   1.084       .  S
C1074      S1076   1.798       .  S
S1075      H1078   1.405       .  S
S1076      H1077   1.407       .  S
C1081      C1082   1.403       .  A
C1081      C1086   1.412       .  A
C1082      C1083   1.407       .  A
C1082      H1091   1.083       .  S
C1083      C1084   1.418       .  A
C1083      S1087   1.808       .  S
C1084      C1085   1.404       .  A
C1085      C1086   1.399       .  A
C1085      H1092   1.083       .  S
C1086      S1088   1.810       .  S
S1087      H1090   1.407       .  S
S1088      H1089   1.407       .  S
C1093      C1094   1.415       .  A
C1093      C1098   1.405       .  A
C1094      C1095   1.397       .  A
C1094      H1103   1.082       .  S
C1095      C1096   1.410       .  A
C1095      S1099   1.810       .  S
C1096      C1097   1.417       .  A
C1097      C1098   1.400       .  A
C1097      H1104   1.084       .  S
C1098      S1100   1.800       .  S
S1099      H1102   1.407       .  S
S1100      H1101   1.408       .  S
C1105      C1106   1.403       .  A
C1105      C1110   1.402       .  A
C1106      C1107   1.385       .  A
C1106      H1115   1.087       .  S
C1107      C1108   1.398       .  A
C1107      S1111   1.802       .  S
C1108      C1109   1.399       .  A
C1109      C1110   1.385       .  A
C1109      H1116   1.087       .  S
C1110      S1112   1.803       .  S
S1111      H1114   1.407       .  S
S1112      H1113   1.406       .  S
C1117      C1118   1.404       .  A
C1117      C1122   1.413       .  A
C1118      C1119   1.402       .  A
C1118      H1127   1.085       .  S
C1119      C1120   1.411       .  A
C1119      S1123   1.804       .  S
C1120      C1121   1.403       .  A
C1121      C1122   1.398       .  A
C1121      H1128   1.085       .  S
C1122      S1124   1.804       .  S
S1123      H1126   1.407       .  S
S1124      H1125   1.403       .  S
C1129      C1130   1.409       .  A
C1129      C1134   1.421       .  A
C1130      C1131   1.415       .  A
C1130      H1139   1.082       .  S
C1131      C1132   1.419       .  A
C1131      S1135   1.801       .  S
C1132      C1133   1.402       .  A
C1133      C1134   1.405       .  A
C1133      H1140   1.082       .  S
C1134      S1136   1.800       .  S
S1135      H1138   1.405       .  S
S1136      H1137   1.404       .  S
C1141      C1142   1.411       .  A
C1141      C1146   1.417       .  A
C1142      C1143   1.401   1_545  A
C1142      H1151   1.084       .  S
C1143      C1144   1.411       .  A
C1143      S1147   1.805       .  S
C1144      C1145   1.410   1_565  A
C1145      C1146   1.415       .  A
C1145      H1152   1.084       .  S
C1146      S1148   1.797       .  S
S1147      H1150   1.407       .  S
S1148      H1149   1.407       .  S
C1153      C1154   1.407       .  A
C1153      C1158   1.418       .  A
C1154      C1155   1.396       .  A
C1154      H1163   1.083       .  S
C1155      C1156   1.413       .  A
C1155      S1159   1.802       .  S
C1156      C1157   1.405       .  A
C1157      C1158   1.399       .  A
C1157      H1164   1.082       .  S
C1158      S1160   1.811       .  S
S1159      H1162   1.408       .  S
S1160      H1161   1.407       .  S
C1165      C1166   1.402       .  A
C1165      C1170   1.412       .  A
C1166      C1167   1.400       .  A
C1166      H1175   1.084   1_545  S
C1167      C1168   1.415       .  A
C1167      S1171   1.800       .  S
C1168      C1169   1.404       .  A
C1169      C1170   1.401       .  A
C1169      H1176   1.084       .  S
C1170      S1172   1.796       .  S
S1171      H1174   1.406       .  S
S1172      H1173   1.404       .  S
C1177      C1178   1.406       .  A
C1177      C1182   1.411       .  A
C1178      C1179   1.406       .  A
C1178      H1187   1.083       .  S
C1179      C1180   1.411       .  A
C1179      S1183   1.806       .  S
C1180      C1181   1.411       .  A
C1181      C1182   1.407       .  A
C1181      H1188   1.084       .  S
C1182      S1184   1.805       .  S
S1183      H1186   1.407       .  S
S1184      H1185   1.405       .  S
C1189      C1190   1.409       .  A
C1189      C1194   1.420       .  A
C1190      C1191   1.412       .  A
C1190      H1199   1.084   1_545  S
C1191      C1192   1.415       .  A
C1191      S1195   1.802   1_545  S
C1192      C1193   1.408       .  A
C1193      C1194   1.412       .  A
C1193      H1200   1.085       .  S
C1194      S1196   1.798       .  S
S1195      H1198   1.407   1_565  S
S1196      H1197   1.407       .  S
C1201      C1202   1.408       .  A
C1201      C1206   1.430       .  A
C1202      C1203   1.409   1_545  A
C1202      H1211   1.083       .  S
C1203      C1204   1.417       .  A
C1203      S1207   1.804       .  S
C1204      C1205   1.400   1_565  A
C1205      C1206   1.408       .  A
C1205      H1212   1.085       .  S
C1206      S1208   1.802       .  S
S1207      H1210   1.407       .  S
S1208      H1209   1.407       .  S
C1213      C1214   1.408       .  A
C1213      C1218   1.419       .  A
C1214      C1215   1.406       .  A
C1214      H1223   1.083       .  S
C1215      C1216   1.419       .  A
C1215      S1219   1.800       .  S
C1216      C1217   1.409       .  A
C1217      C1218   1.406       .  A
C1217      H1224   1.082       .  S
C1218      S1220   1.810       .  S
S1219      H1222   1.407       .  S
S1220      H1221   1.407       .  S
C1225      C1226   1.411       .  A
C1225      C1230   1.406       .  A
C1226      C1227   1.405       .  A
C1226      H1235   1.079       .  S
C1227      C1228   1.410       .  A
C1227      S1231   1.808       .  S
C1228      C1229   1.415       .  A
C1229      C1230   1.406       .  A
C1229      H1236   1.082       .  S
C1230      S1232   1.805       .  S
S1231      H1234   1.406       .  S
S1232      H1233   1.407       .  S
C1237      C1238   1.397       .  A
C1237      C1242   1.402       .  A
C1238      C1239   1.383       .  A
C1238      H1247   1.085       .  S
C1239      C1240   1.402       .  A
C1239      S1243   1.799       .  S
C1240      C1241   1.398       .  A
C1241      C1242   1.383       .  A
C1241      H1248   1.085       .  S
C1242      S1244   1.802       .  S
S1243      H1246   1.406       .  S
S1244      H1245   1.407       .  S
C1249      C1250   1.399       .  A
C1249      C1254   1.411       .  A
C1250      C1251   1.401       .  A
C1250      H1259   1.083       .  S
C1251      C1252   1.413       .  A
C1251      S1255   1.807       .  S
C1252      C1253   1.403       .  A
C1253      C1254   1.399       .  A
C1253      H1260   1.084       .  S
C1254      S1256   1.804       .  S
S1255      H1258   1.407       .  S
S1256      H1257   1.406       .  S
C1261      C1262   1.407       .  A
C1261      C1266   1.421       .  A
C1262      C1263   1.419       .  A
C1262      H1271   1.082       .  S
C1263      C1264   1.419       .  A
C1263      S1267   1.803       .  S
C1264      C1265   1.403       .  A
C1265      C1266   1.406       .  A
C1265      H1272   1.084       .  S
C1266      S1268   1.799       .  S
S1267      H1270   1.407       .  S
S1268      H1269   1.406   1_455  S
C1273      C1274   1.413       .  A
C1273      C1278   1.420       .  A
C1274      C1275   1.405       .  A
C1274      H1283   1.083       .  S
C1275      C1276   1.411       .  A
C1275      S1279   1.805       .  S
C1276      C1277   1.411       .  A
C1277      C1278   1.418       .  A
C1277      H1284   1.083   1_455  S
C1278      S1280   1.798       .  S
S1279      H1282   1.407       .  S
S1280      H1281   1.407       .  S
C1285      C1286   1.404       .  A
C1285      C1290   1.419       .  A
C1286      C1287   1.397       .  A
C1286      H1295   1.083       .  S
C1287      C1288   1.419       .  A
C1287      S1291   1.803       .  S
C1288      C1289   1.407       .  A
C1289      C1290   1.402       .  A
C1289      H1296   1.083       .  S
C1290      S1292   1.803       .  S
S1291      H1294   1.408       .  S
S1292      H1293   1.408       .  S
C1297      C1298   1.402       .  A
C1297      C1302   1.411       .  A
C1298      C1299   1.401       .  A
C1298      H1307   1.084       .  S
C1299      C1300   1.415       .  A
C1299      S1303   1.800       .  S
C1300      C1301   1.408       .  A
C1301      C1302   1.401       .  A
C1301      H1308   1.084       .  S
C1302      S1304   1.802       .  S
S1303      H1306   1.407       .  S
S1304      H1305   1.403       .  S
C1309      C1310   1.405       .  A
C1309      C1314   1.410       .  A
C1310      C1311   1.403       .  A
C1310      H1319   1.085       .  S
C1311      C1312   1.411       .  A
C1311      S1315   1.803       .  S
C1312      C1313   1.408       .  A
C1313      C1314   1.409       .  A
C1313      H1320   1.083       .  S
C1314      S1316   1.804       .  S
S1315      H1318   1.407       .  S
S1316      H1317   1.405       .  S
C1321      C1322   1.405       .  A
C1321      C1326   1.414       .  A
C1322      C1323   1.409       .  A
C1322      H1331   1.084       .  S
C1323      C1324   1.421       .  A
C1323      S1327   1.802       .  S
C1324      C1325   1.411       .  A
C1325      C1326   1.411       .  A
C1325      H1332   1.084       .  S
C1326      S1328   1.802       .  S
S1327      H1330   1.407       .  S
S1328      H1329   1.407       .  S
C1333      C1334   1.401       .  A
C1333      C1338   1.423       .  A
C1334      C1335   1.407       .  A
C1334      H1343   1.082       .  S
C1335      C1336   1.426       .  A
C1335      S1339   1.807       .  S
C1336      C1337   1.404       .  A
C1337      C1338   1.415       .  A
C1337      H1344   1.081   1_455  S
C1338      S1340   1.798       .  S
S1339      H1342   1.407       .  S
S1340      H1341   1.406       .  S
C1345      C1346   1.401       .  A
C1345      C1350   1.409       .  A
C1346      C1347   1.401       .  A
C1346      H1355   1.079       .  S
C1347      C1348   1.419       .  A
C1347      S1351   1.811       .  S
C1348      C1349   1.410       .  A
C1349      C1350   1.401       .  A
C1349      H1356   1.082       .  S
C1350      S1352   1.803       .  S
S1351      H1354   1.406       .  S
S1352      H1353   1.407       .  S
C1357      C1358   1.403       .  A
C1357      C1362   1.417       .  A
C1358      C1359   1.406       .  A
C1358      H1367   1.083       .  S
C1359      C1360   1.416       .  A
C1359      S1363   1.802   1_455  S
C1360      C1361   1.396       .  A
C1361      C1362   1.399       .  A
C1361      H1368   1.084       .  S
C1362      S1364   1.799       .  S
S1363      H1366   1.405       .  S
S1364      H1365   1.407       .  S
C1369      C1370   1.401       .  A
C1369      C1374   1.405       .  A
C1370      C1371   1.389       .  A
C1370      H1379   1.084       .  S
C1371      C1372   1.403       .  A
C1371      S1375   1.804       .  S
C1372      C1373   1.394       .  A
C1373      C1374   1.380       .  A
C1373      H1380   1.085       .  S
C1374      S1376   1.797       .  S
S1375      H1378   1.406       .  S
S1376      H1377   1.403       .  S
C1381      C1382   1.403       .  A
C1381      C1386   1.415       .  A
C1382      C1383   1.403       .  A
C1382      H1391   1.085       .  S
C1383      C1384   1.417       .  A
C1383      S1387   1.798       .  S
C1384      C1385   1.407       .  A
C1385      C1386   1.408       .  A
C1385      H1392   1.084       .  S
C1386      S1388   1.795       .  S
S1387      H1390   1.405       .  S
S1388      H1389   1.401       .  S
