geometry optimzed in LAMMPS
_audit_creation_date              2020-12-01 
_audit_creation_method            'lammps2cif' 
_symmetry_space_group_name_H-M    'P1' 
_symmetry_Int_Tables_number       1 
_symmetry_cell_setting            triclinic 
loop_ 
_symmetry_equiv_pos_as_xyz 
  x,y,z 
_cell_length_a                    33.39808157 
_cell_length_b                    33.53883216422278 
_cell_length_c                    34.10866701277626 
_cell_angle_alpha                 91.14246354489599 
_cell_angle_beta                  90.3317173515534 
_cell_angle_gamma                 90.62791424632098 
loop_ 
_atom_site_label 
_atom_site_type_symbol 
_atom_site_fract_x 
_atom_site_fract_y 
_atom_site_fract_z 
_atom_site_charge 
C1          C  0.59549516  0.47767931  0.29788680     0.79700
N2          N  0.59313865  0.51374046  0.31651816    -0.78600
C3          C  0.56624812  0.54133774  0.30557021     0.82200
N4          N  0.54111223  0.53247451  0.27522993    -0.78500
C5          C  0.54236494  0.49634001  0.25686669     0.82300
N6          N  0.56963913  0.46895277  0.26798737    -0.80200
C7          C  0.30728296  0.43385832  0.89744298     0.79700
N8          N  0.32742025  0.44699945  0.93006228    -0.78600
C9          C  0.35159771  0.42153080  0.94937370     0.82200
N10         N  0.35543289  0.38333290  0.93626177    -0.78500
C11         C  0.33601013  0.37019213  0.90342161     0.82300
N12         N  0.31210535  0.39579273  0.88428498    -0.80200
C13         C  0.63747267  0.58600472  0.01647548     0.79700
N14         N  0.60217665  0.57511314  0.03251828    -0.78600
C15         C  0.57552555  0.55199807  0.01203945     0.82200
N16         N  0.58453427  0.53908267  0.97512558    -0.78500
C17         C  0.61988536  0.54994979  0.95849000     0.82300
N18         N  0.64606358  0.57322039  0.97959479    -0.80200
C19         C  0.34435734  0.66855638  0.00491770     0.79700
N20         N  0.36407359  0.68039640  0.97239576    -0.78600
C21         C  0.39382350  0.65796151  0.95648135     0.82200
N22         N  0.40413906  0.62333070  0.97418050    -0.78500
C23         C  0.38461651  0.61133044  0.00697541     0.82300
N24         N  0.35490298  0.63407318  0.02198538    -0.80200
C25         C  0.25833602  0.32402140  0.18712588     0.79700
N26         N  0.29404539  0.33600400  0.17248234    -0.78600
C27         C  0.31896460  0.36063409  0.19350081     0.82200
N28         N  0.30767143  0.37410594  0.22952310    -0.78500
C29         C  0.27198771  0.36248839  0.24489532     0.82300
N30         N  0.24748305  0.33772022  0.22330288    -0.80200
C31         C  0.55245938  0.25874861  0.20227922     0.79700
N32         N  0.53283083  0.24557574  0.23430740    -0.78600
C33         C  0.50148755  0.26581056  0.25007759     0.82200
N34         N  0.48937758  0.30006062  0.23267246    -0.78500
C35         C  0.50865291  0.31364336  0.20028650     0.82300
N36         N  0.53998434  0.29279002  0.18540851    -0.80200
Zr37       Zr  0.44005830  0.43629123  0.17767464     2.17500
O38         O  0.41578283  0.45866297  0.24162921    -0.51800
O39         O  0.47033181  0.37320704  0.19620686    -0.75000
O40         O  0.37975182  0.39819976  0.19402132    -0.81800
O41         O  0.52389902  0.51164224  0.19349748    -0.83500
O42         O  0.35132828  0.37815330  0.13597418    -0.79200
O43         O  0.49175546  0.46016051  0.22312319    -0.90800
O44         O  0.50796064  0.35324931  0.14416782    -0.76800
O45         O  0.43694221  0.39106957  0.12308030    -0.86300
O46         O  0.50213236  0.44261843  0.14403802    -0.85900
O47         O  0.38481608  0.45895906  0.13849475    -0.72700
O48         O  0.44511935  0.50521390  0.15903876    -0.84800
Zr49       Zr  0.44914622  0.48762301  0.03020919     2.26400
Zr50       Zr  0.38306680  0.41367506  0.08356086     2.06300
Zr51       Zr  0.50676795  0.51048765  0.12468907     2.10000
Zr52       Zr  0.49867605  0.39796693  0.08962155     1.78800
O53         O  0.50512894  0.58106781  0.14281078    -0.93600
O54         O  0.48266221  0.33249965  0.06113138    -0.41400
O55         O  0.50450864  0.46565972  0.06928802    -0.78100
O56         O  0.44457197  0.41884383  0.04861564    -0.96800
O57         O  0.38713899  0.48144889  0.06359222    -0.90100
O58         O  0.45322980  0.53304986  0.08495575    -0.92900
C59         C  0.49468503  0.34908080  0.17916089     1.00800
C60         C  0.51744038  0.48890415  0.22251474     1.13800
C61         C  0.35283185  0.37942225  0.17353151     1.04500
O62         O  0.38178215  0.34464375  0.06012611    -0.95100
O63         O  0.36403440  0.41271112  0.01544369    -0.90800
O64         O  0.39809572  0.46206814  0.98456581    -0.84000
C65         C  0.37216838  0.43353109  0.98546755     1.11200
O66         O  0.35559478  0.53859039  0.17916082    -0.97000
Zr67       Zr  0.39113467  0.52662007  0.11783539     1.88900
O68         O  0.42129906  0.55137367  0.01173377    -0.73700
O69         O  0.31051390  0.42005512  0.08120095    -0.53000
O70         O  0.31958802  0.52571558  0.10351505    -0.97600
O71         O  0.40324486  0.59339087  0.14531197    -0.54900
O72         O  0.38213319  0.57107815  0.06271995    -0.74200
C73         C  0.39667509  0.57547312  0.02819389     0.98100
O74         O  0.46836990  0.46915316  0.96349820    -0.63000
O75         O  0.57944314  0.50885575  0.13242297    -0.57800
O76         O  0.51246064  0.51906934  0.01288307    -0.94500
O77         O  0.54286687  0.53791181  0.07029510    -0.92900
O78         O  0.57046698  0.39974031  0.10257640    -0.93300
O79         O  0.53827585  0.38292898  0.03152684    -0.92100
C80         C  0.54099550  0.53577198  0.03276607     1.17000
H81         H  0.52462370  0.43561575  0.16035244     0.32900
H82         H  0.44355673  0.40194576  0.02533090     0.43800
H83         H  0.45879777  0.56013130  0.07735873     0.37300
H84         H  0.36010193  0.45708584  0.15290580     0.33800
H85         H  0.50604988  0.31588341  0.06752686     0.25600
H86         H  0.30570783  0.44325397  0.06437065     0.31500
H87         H  0.30941250  0.50089303  0.11532989     0.37400
H88         H  0.57832668  0.42806443  0.09958861     0.31900
H89         H  0.58702617  0.53539251  0.14354469     0.30800
H90         H  0.53277316  0.58771808  0.15151862     0.32400
H91         H  0.41735027  0.60807371  0.12452080     0.31400
H92         H  0.51880768  0.38262553  0.00951074     0.35400
H93         H  0.47432386  0.49456316  0.95032155     0.28100
H94         H  0.40791071  0.43422328  0.25558713     0.32400
H95         H  0.33479245  0.55840099  0.17315430     0.35200
H96         H  0.58474859  0.49003013  0.15378714     0.27800
H97         H  0.49456892  0.45589889  0.96613356     0.40700
H98         H  0.35299298  0.33799651  0.05675731     0.30800
H99         H  0.46087328  0.32198283  0.07768418     0.38400
H100        H  0.42380074  0.58980553  0.16593254     0.30200
H101        H  0.30100237  0.39676205  0.06531902     0.30300
H102        H  0.39026525  0.47222758  0.23595939     0.30500
C103        C  0.45271190  0.16706753  0.73653869     0.79700
N104        N  0.44470487  0.13122302  0.71856294    -0.78600
C105        C  0.46586587  0.12017555  0.68614118     0.82200
N106        N  0.49466043  0.14472944  0.67200987    -0.78500
C107        C  0.50255554  0.18060844  0.68959560     0.82300
N108        N  0.48121045  0.19144944  0.72158252    -0.80200
C109        C  0.44021645  0.73173369  0.48464552     0.79700
N110        N  0.44719174  0.76896446  0.49960400    -0.78600
C111        C  0.41804965  0.78795790  0.51997530     0.82200
N112        N  0.38220451  0.76964692  0.52570409    -0.78500
C113        C  0.37513684  0.73215651  0.51139269     0.82300
N114        N  0.40443634  0.71351585  0.49094634    -0.80200
C115        C  0.55219770  0.82471127  0.77863803     0.79700
N116        N  0.53591605  0.83939432  0.74527077    -0.78600
C117        C  0.54678415  0.87605179  0.73256815     0.82200
N118        N  0.57392091  0.89830618  0.75350352    -0.78500
C119        C  0.59099690  0.88407556  0.78651849     0.82300
N120        N  0.57957139  0.84740468  0.79894480    -0.80200
C121        C  0.63480330  0.79721616  0.54424685     0.79700
N122        N  0.60263033  0.81868013  0.55610775    -0.78600
C123        C  0.59492855  0.85463695  0.54033235     0.82200
N124        N  0.61968843  0.86932099  0.51252133    -0.78500
C125        C  0.65198262  0.84837610  0.50016552     0.82300
N126        N  0.65935581  0.81252116  0.51650054    -0.80200
C127        C  0.34415139  0.08762971  0.42165371     0.79700
N128        N  0.35985413  0.07196685  0.45490452    -0.78600
C129        C  0.34658316  0.03594819  0.46782759     0.82200
N130        N  0.31802522  0.01539656  0.44699868    -0.78500
C131        C  0.30150545  0.03088721  0.41424771     0.82300
N132        N  0.31505818  0.06677854  0.40189607    -0.80200
C133        C  0.24300448  0.10114526  0.64023749     0.79700
N134        N  0.27797210  0.08296008  0.63048970    -0.78600
C135        C  0.28952306  0.04949731  0.64928566     0.82200
N136        N  0.26591553  0.03419228  0.67759474    -0.78500
C137        C  0.23100920  0.05171148  0.68757525     0.82300
N138        N  0.21990488  0.08518241  0.66883655    -0.80200
Zr139      Zr  0.41645985  0.02715567  0.59007864     2.17500
O140        O  0.43582691  0.09197218  0.56469709    -0.51800
O141        O  0.35079730  0.04478711  0.61485084    -0.75000
O142        O  0.38209391  0.03943346  0.52820026    -0.81800
O143        O  0.48023500  0.05220919  0.68033714    -0.83500
O144        O  0.36751505  0.97852421  0.50067910    -0.79200
O145        O  0.43597072  0.07907627  0.63743975    -0.90800
O146        O  0.33073419  0.99350096  0.65301413    -0.76800
O147        O  0.37438713  0.96928687  0.58607979    -0.86300
O148        O  0.41888586  0.99696109  0.65276217    -0.85900
O149        O  0.44523233  0.98597135  0.53938579    -0.72700
O150        O  0.48587712  0.01276723  0.60162382    -0.84800
Zr151      Zr  0.47505173  0.88178548  0.61077779     2.26400
Zr152      Zr  0.40335525  0.92757391  0.53666529     2.06300
Zr153      Zr  0.48750458  0.98184257  0.66416209     2.10000
Zr154      Zr  0.37786707  0.93902462  0.64841384     1.78800
O155        O  0.55524199  0.00876980  0.67097752    -0.93600
O156        O  0.31490499  0.90767989  0.62727352    -0.41400
O157        O  0.44635713  0.92281906  0.66175971    -0.78100
O158        O  0.40563518  0.89612538  0.59914837    -0.96800
O159        O  0.47200930  0.91139581  0.54801253    -0.90100
O160        O  0.51668115  0.93980617  0.61484382    -0.92900
C161        C  0.32608449  0.02809701  0.63823828     1.00800
C162        C  0.45975478  0.08121398  0.66713208     1.13800
C163        C  0.36625640  0.01687734  0.50130163     1.04500
O164        O  0.33592790  0.90071282  0.52671610    -0.95100
O165        O  0.40527822  0.85630142  0.52396806    -0.90800
O166        O  0.45136906  0.82990809  0.56534672    -0.84000
C167        C  0.42561537  0.82730167  0.53731834     1.11200
O168        O  0.53245581  0.03008598  0.51869778    -0.97000
Zr169      Zr  0.51340906  0.96927953  0.55216258     1.88900
O170        O  0.53793507  0.86317547  0.58020227    -0.73700
O171        O  0.42174505  0.91863196  0.46809207    -0.53000
O172        O  0.51554611  0.96097278  0.48106162    -0.97600
O173        O  0.57930436  0.99365651  0.57320475    -0.54900
O174        O  0.55674601  0.91305040  0.53989398    -0.74200
C175        C  0.56096916  0.87835229  0.55431254     0.98100
O176        O  0.46336350  0.81491292  0.63561707    -0.63000
O177        O  0.47407793  0.99173248  0.73383916    -0.57800
O178        O  0.50991417  0.87110608  0.67290754    -0.94500
O179        O  0.52337450  0.93216782  0.70040044    -0.92900
O180        O  0.36876826  0.95258240  0.71815606    -0.93300
O181        O  0.36382006  0.87969387  0.68626879    -0.92100
C182        C  0.52559769  0.89404566  0.69959906     1.17000
H183        H  0.40888139  0.01453949  0.67311773     0.32900
H184        H  0.39030509  0.87154357  0.59831263     0.43800
H185        H  0.54385105  0.93316292  0.62184175     0.37300
H186        H  0.44468546  0.99931370  0.51454225     0.33800
H187        H  0.30766733  0.92131370  0.60279636     0.25600
H188        H  0.39600267  0.91415391  0.45406178     0.31500
H189        H  0.51045682  0.93218358  0.47601470     0.37400
H190        H  0.39582839  0.94995679  0.72972525     0.31900
H191        H  0.46758675  0.96490414  0.74375525     0.30800
H192        H  0.55605739  0.02158684  0.69737696     0.32400
H193        H  0.59317778  0.97025164  0.58384226     0.31400
H194        H  0.38176682  0.85912574  0.67513498     0.35400
H195        H  0.49025046  0.80354091  0.63987501     0.28100
H196        H  0.41044369  0.10633020  0.56057643     0.32400
H197        H  0.55829023  0.02416081  0.50583162     0.35200
H198        H  0.50043768  0.99861043  0.74574217     0.27800
H199        H  0.45210659  0.81880449  0.66219491     0.40700
H200        H  0.33358421  0.89596136  0.49804452     0.30800
H201        H  0.32182721  0.88028089  0.61859340     0.38400
H202        H  0.57404459  0.01096435  0.59638525     0.30200
H203        H  0.43093090  0.94531286  0.45979703     0.30300
H204        H  0.44613693  0.08635792  0.53801323     0.30500
C205        C  0.99449118  0.17388804  0.98046970     0.79700
N206        N  0.02665247  0.19141049  0.99891133    -0.78600
C207        C  0.04731512  0.17210406  0.02707580     0.82200
N208        N  0.03510619  0.13499119  0.03654367    -0.78500
C209        C  0.00357208  0.11664088  0.01824813     0.82300
N210        N  0.98304638  0.13618466  0.99016865    -0.80200
C211        C  0.13725804  0.87474983  0.21465894     0.79700
N212        N  0.10062743  0.88486630  0.20065206    -0.78600
C213        C  0.08718178  0.86976254  0.16567197     0.82200
N214        N  0.11062788  0.84472940  0.14444377    -0.78500
C215        C  0.14693003  0.83375744  0.15826067     0.82300
N216        N  0.16003408  0.84913261  0.19322548    -0.80200
C217        C  0.85527494  0.98171054  0.32727950     0.79700
N218        N  0.86390731  0.97103115  0.28960712    -0.78600
C219        C  0.88709568  0.99516267  0.26743983     0.82200
N220        N  0.90138104  0.03020359  0.28284771    -0.78500
C221        C  0.89338043  0.04097600  0.32061957     0.82300
N222        N  0.87016125  0.01660537  0.34255099    -0.80200
C223        C  0.89230037  0.74871304  0.22339608     0.79700
N224        N  0.86052271  0.72869139  0.20707000    -0.78600
C225        C  0.83932139  0.74470205  0.17729025     0.82200
N226        N  0.85059547  0.78067541  0.16367586    -0.78500
C227        C  0.88217073  0.80094409  0.17960177     0.82300
N228        N  0.90333403  0.78479696  0.20927480    -0.80200
C229        C  0.74739652  0.04740086  0.98732517     0.79700
N230        N  0.78594794  0.03911155  0.99724307    -0.78600
C231        C  0.80286603  0.05596883  0.03014923     0.82200
N232        N  0.78087503  0.08108901  0.05308095    -0.78500
C233        C  0.74279499  0.09056732  0.04283620     0.82300
N234        N  0.72623603  0.07309107  0.01025535    -0.80200
C235        C  0.03004867  0.92210162  0.86707002     0.79700
N236        N  0.02090926  0.93543749  0.90383398    -0.78600
C237        C  0.99507677  0.91454230  0.92634970     0.82200
N238        N  0.97833637  0.88008968  0.91222509    -0.78500
C239        C  0.98649677  0.86664594  0.87536409     0.82300
N240        N  0.01234979  0.88787651  0.85304923    -0.80200
Zr241      Zr  0.93144668  0.99188136  0.02701821     2.17500
O242        O  0.90568164  0.99169925  0.95990239    -0.51800
O243        O  0.96349431  0.05675091  0.01480445    -0.75000
O244        O  0.86643359  0.02548003  0.02120212    -0.81800
O245        O  0.99937626  0.90511293  0.99379090    -0.83500
O246        O  0.84461059  0.04002209  0.08292190    -0.79200
O247        O  0.96633586  0.95956172  0.97198426    -0.90800
O248        O  0.00680985  0.06831927  0.06538774    -0.76800
O249        O  0.93652018  0.02964318  0.08693277    -0.86300
O250        O  0.99707717  0.98063176  0.05276702    -0.85900
O251        O  0.88000726  0.96494758  0.06868181    -0.72700
O252        O  0.93629024  0.92119098  0.03720101    -0.84800
Zr253      Zr  0.95495094  0.92282613  0.16583359     2.26400
Zr254      Zr  0.88569143  0.00336380  0.12860638     2.06300
Zr255      Zr  0.00128867  0.91057085  0.06435536     2.10000
Zr256      Zr  0.00141720  0.01727326  0.11306751     1.78800
O257        O  0.00617019  0.84017696  0.04621645    -0.93600
O258        O  0.99564493  0.08049392  0.14895210    -0.41400
O259        O  0.00674486  0.94790707  0.12444436    -0.78100
O260        O  0.95086013  0.99351028  0.15611908    -0.96800
O261        O  0.88963763  0.93322026  0.13975713    -0.90100
O262        O  0.95098886  0.88407443  0.10624738    -0.92900
C263        C  0.99028783  0.07789265  0.03313250     1.00800
C264        C  0.98670379  0.92757361  0.96657258     1.13800
C265        C  0.84099902  0.04059602  0.04543448     1.04500
O266        O  0.88588173  0.07187401  0.15361144    -0.95100
O267        O  0.88073648  0.00413796  0.19958448    -0.90800
O268        O  0.92157571  0.95530854  0.22143504    -0.84000
C269        C  0.89667498  0.98380713  0.22691968     1.11200
O270        O  0.84594677  0.88832864  0.02013007    -0.97000
Zr271      Zr  0.88616584  0.89549960  0.07984710     1.88900
O272        O  0.92379911  0.85831085  0.17760263    -0.73700
O273        O  0.81609041  0.98964641  0.14508340    -0.53000
O274        O  0.81450012  0.89591277  0.09301130    -0.97600
O275        O  0.89679772  0.83119109  0.04694409    -0.54900
O276        O  0.87653003  0.84751841  0.13038778    -0.74200
C277        C  0.89489803  0.83817691  0.16181869     0.98100
O278        O  0.97491341  0.91037175  0.23343200    -0.63000
O279        O  0.06901439  0.92542063  0.04235247    -0.57800
O280        O  0.02414732  0.90046958  0.17166950    -0.94500
O281        O  0.04524415  0.87984090  0.11145046    -0.92900
O282        O  0.07232134  0.01519076  0.09671910    -0.93300
O283        O  0.04345977  0.02312643  0.17152027    -0.92100
C284        C  0.04958231  0.88368975  0.14872590     1.17000
H285        H  0.01743573  0.98916356  0.03463039     0.32900
H286        H  0.95447097  0.00832316  0.18040623     0.43800
H287        H  0.95588118  0.85611650  0.11020150     0.37300
H288        H  0.85353799  0.96690115  0.05751268     0.33800
H289        H  0.01498328  0.09876875  0.13640280     0.25600
H290        H  0.80419287  0.01623892  0.14965462     0.31500
H291        H  0.81208011  0.89150022  0.12151342     0.37400
H292        H  0.07538674  0.03220153  0.07351951     0.31900
H293        H  0.08172730  0.94011052  0.06468003     0.30800
H294        H  0.03336678  0.83731571  0.03517708     0.32400
H295        H  0.90410299  0.81255089  0.06788753     0.31400
H296        H  0.04420664  0.99580679  0.18198471     0.35400
H297        H  0.98581948  0.88303417  0.23344783     0.28100
H298        H  0.90030393  0.01990399  0.95387886     0.32400
H299        H  0.82969205  0.86373019  0.02321822     0.35200
H300        H  0.08261506  0.89933692  0.04156195     0.27800
H301        H  0.99822807  0.92820603  0.23881071     0.40700
H302        H  0.89184027  0.08837948  0.13057776     0.30800
H303        H  0.96903662  0.09069425  0.14147667     0.38400
H304        H  0.92175090  0.83479546  0.03183978     0.30200
H305        H  0.80365227  0.97966421  0.12030844     0.30300
H306        H  0.87899070  0.97860710  0.96098635     0.30500
C307        C  0.15853389  0.57171843  0.63458472     0.79700
N308        N  0.12372594  0.55481531  0.62124907    -0.78600
C309        C  0.09726891  0.53902245  0.64709981     0.82200
N310        N  0.10593049  0.53954156  0.68616783    -0.78500
C311        C  0.14088473  0.55592693  0.69955521     0.82300
N312        N  0.16657883  0.57167606  0.67350185    -0.80200
C313        C  0.71337387  0.34349365  0.55970845     0.79700
N314        N  0.74770807  0.36097764  0.57333593    -0.78600
C315        C  0.77619189  0.37257401  0.54758421     0.82200
N316        N  0.77026831  0.36648890  0.50846259    -0.78500
C317        C  0.73597536  0.34914906  0.49461695     0.82300
N318        N  0.70764350  0.33796207  0.52062053    -0.80200
C319        C  0.84188142  0.63458605  0.74350753     0.79700
N320        N  0.86112039  0.60205827  0.72877411    -0.78600
C321        C  0.84229806  0.57657116  0.70297338     0.82200
N322        N  0.80433761  0.58425713  0.69113353    -0.78500
C323        C  0.78488281  0.61692774  0.70497231     0.82300
N324        N  0.80412600  0.64194957  0.73081636    -0.80200
C325        C  0.02673216  0.28042259  0.44598018     0.79700
N326        N  0.06362196  0.26967442  0.45838334    -0.78600
C327        C  0.08387123  0.29124361  0.48634453     0.82200
N328        N  0.06638826  0.32436496  0.50217398    -0.78500
C329        C  0.02935206  0.33563032  0.48998272     0.82300
N330        N  0.00936513  0.31299491  0.46255634    -0.80200
C331        C  0.78601073  0.38723986  0.78299208     0.79700
N332        N  0.80338177  0.35810171  0.80417328    -0.78600
C333        C  0.83819455  0.34110302  0.79253566     0.82200
N334        N  0.85614948  0.35431698  0.75962076    -0.78500
C335        C  0.83936213  0.38336596  0.73803275     0.82300
N336        N  0.80439027  0.39989216  0.74987401    -0.80200
C337        C  0.09355697  0.52412682  0.41246037     0.79700
N338        N  0.07870635  0.55490863  0.39187601    -0.78600
C339        C  0.04390315  0.57255558  0.40197704     0.82200
N340        N  0.02338173  0.55925598  0.43347097    -0.78500
C341        C  0.03760862  0.52853312  0.45469575     0.82300
N342        N  0.07264472  0.51088032  0.44397421    -0.80200
Zr343      Zr  0.01169482  0.45394991  0.56968437     2.17500
O344        O  0.07991199  0.43143166  0.58082808    -0.51800
O345        O  0.03064115  0.48822798  0.51040275    -0.75000
O346        O  0.02814964  0.39456935  0.52996776    -0.81800
O347        O  0.02819012  0.52971414  0.65343315    -0.83500
O348        O  0.96950424  0.36461912  0.51111084    -0.79200
O349        O  0.05977598  0.49887021  0.60238905    -0.90800
O350        O  0.97793288  0.52588553  0.49181931    -0.76800
O351        O  0.95562860  0.45062695  0.52624337    -0.86300
O352        O  0.97755529  0.51581391  0.57769392    -0.85900
O353        O  0.97307058  0.39742887  0.59076774    -0.72700
O354        O  0.99290059  0.45840812  0.63761797    -0.84800
Zr355      Zr  0.86169722  0.45979347  0.62300525     2.26400
Zr356      Zr  0.91601077  0.39557863  0.54794724     2.06300
Zr357      Zr  0.95696372  0.51937419  0.64469984     2.10000
Zr358      Zr  0.92139278  0.51187822  0.53477355     1.78800
O359        O  0.97650307  0.53538800  0.71215919    -0.93600
O360        O  0.89608628  0.49345553  0.46968541    -0.41400
O361        O  0.89996821  0.51674593  0.60195141    -0.78100
O362        O  0.88053647  0.45694457  0.55492161    -0.96800
O363        O  0.89630668  0.39845509  0.61518430    -0.90100
O364        O  0.91805499  0.46389043  0.66608390    -0.92900
C365        C  0.01396035  0.51332117  0.48779943     1.00800
C366        C  0.05936858  0.52147557  0.63325474     1.13800
C367        C  0.00783823  0.36743072  0.51120142     1.04500
O368        O  0.89549186  0.38336013  0.48006362    -0.95100
O369        O  0.84509157  0.38204453  0.54163120    -0.90800
O370        O  0.81313096  0.41448522  0.59143267    -0.84000
C371        C  0.81379018  0.39074058  0.56139782     1.11200
O372        O  0.01758199  0.37253858  0.67071955    -0.97000
Zr373      Zr  0.95298252  0.40298840  0.65776687     1.88900
O374        O  0.84367661  0.42389625  0.68198680    -0.73700
O375        O  0.91001988  0.32537040  0.56424133    -0.53000
O376        O  0.94806063  0.33039571  0.65586592    -0.97600
O377        O  0.97872823  0.41911586  0.72333947    -0.54900
O378        O  0.89739562  0.38736291  0.70008905    -0.74200
C379        C  0.86124731  0.39903937  0.70431512     0.98100
O380        O  0.79319300  0.48217970  0.61261216    -0.63000
O381        O  0.96203927  0.58909614  0.62631793    -0.57800
O382        O  0.84529241  0.51832498  0.66307326    -0.94500
O383        O  0.90329592  0.54905064  0.68248497    -0.92900
O384        O  0.92573625  0.58446202  0.53444481    -0.93300
O385        O  0.85861076  0.54521568  0.52073028    -0.92100
C386        C  0.86504589  0.54549801  0.68221318     1.17000
H387        H  0.99476525  0.53811149  0.57146541     0.32900
H388        H  0.85683213  0.45662183  0.53851849     0.43800
H389        H  0.90995595  0.46811409  0.69298109     0.37300
H390        H  0.98811314  0.37311557  0.58814105     0.33800
H391        H  0.90048021  0.51753509  0.45386296     0.25600
H392        H  0.89914846  0.31216865  0.54017619     0.31500
H393        H  0.91899986  0.32427021  0.65515111     0.37400
H394        H  0.95462062  0.59082776  0.53206809     0.31900
H395        H  0.93535345  0.60038131  0.63189104     0.30800
H396        H  0.97893477  0.56484795  0.71334326     0.32400
H397        H  0.96496036  0.40026644  0.74086736     0.31400
H398        H  0.83983389  0.53551253  0.54087701     0.35400
H399        H  0.78044697  0.48201340  0.63875907     0.28100
H400        H  0.09262764  0.43065013  0.55466493     0.32400
H401        H  0.01319161  0.35448733  0.69295115     0.35200
H402        H  0.97995857  0.60161776  0.64636019     0.27800
H403        H  0.79538100  0.51069170  0.60582304     0.40700
H404        H  0.88809278  0.35468882  0.47856781     0.30800
H405        H  0.91553085  0.47393338  0.45922971     0.38400
H406        H  0.96751260  0.44548940  0.73031717     0.30200
H407        H  0.93790703  0.31585292  0.56612588     0.30300
H408        H  0.07733771  0.40318287  0.58844004     0.30500
C409        C  0.96694286  0.82963056  0.85919092    -0.20400
C410        C  0.95170547  0.79952135  0.88367831     0.35900
C411        C  0.93285029  0.76550109  0.86702846    -0.26300
C412        C  0.92882718  0.76082085  0.82630981     0.02300
C413        C  0.94348625  0.79080995  0.80166776     0.27100
C414        C  0.96273141  0.82467485  0.81829700    -0.25500
N415        N  0.95563623  0.80300193  0.92544837    -0.82800
H416        H  0.92114874  0.74266136  0.88600755     0.12900
C417        C  0.90713564  0.72559551  0.80962648     0.02300
N418        N  0.93728978  0.78746622  0.75996069    -0.81400
H419        H  0.97367050  0.84772816  0.79917015     0.17700
C420        C  0.86529418  0.72530304  0.80973771    -0.26300
C421        C  0.84339295  0.69520233  0.78979736     0.35800
C422        C  0.86362197  0.66452807  0.76900543    -0.20300
C423        C  0.90575898  0.66398051  0.77076112    -0.25500
C424        C  0.92764416  0.69411005  0.79098728     0.27100
H425        H  0.84947567  0.74933159  0.82441375     0.12900
N426        N  0.80060535  0.69637722  0.79062409    -0.82800
H427        H  0.92188243  0.64062929  0.75543388     0.17800
N428        N  0.97064362  0.69349354  0.79185696    -0.81400
H429        H  0.79162924  0.72357603  0.77915470     0.33400
H430        H  0.79149462  0.69556853  0.81987190     0.37900
H431        H  0.97939959  0.68831459  0.82077461     0.33400
H432        H  0.98129940  0.66967535  0.77480335     0.30000
H433        H  0.94849462  0.81272642  0.74608103     0.33400
H434        H  0.95397292  0.76335832  0.74952379     0.30000
H435        H  0.92695828  0.80195788  0.93754963     0.37900
H436        H  0.97144857  0.77835568  0.93527200     0.33400
C437        C  0.02726391  0.60421372  0.37729718    -0.20400
C438        C  0.03174765  0.60312906  0.33611410     0.35900
C439        C  0.01351441  0.63220385  0.31338630    -0.26300
C440        C  0.99056409  0.66224709  0.33093476     0.02300
C441        C  0.98721880  0.66444462  0.37208674     0.27100
C442        C  0.00538116  0.63518582  0.39491147    -0.25500
N443        N  0.05288568  0.57136030  0.31699346    -0.82800
H444        H  0.01566750  0.63015606  0.28170893     0.12900
C445        C  0.96611210  0.68783052  0.30566027     0.02300
N446        N  0.96478447  0.69601885  0.39031882    -0.81400
H447        H  0.00224608  0.63639995  0.42651192     0.17700
C448        C  0.92434931  0.68406678  0.30755228    -0.26300
C449        C  0.89951149  0.70448691  0.28169087     0.35800
C450        C  0.91693363  0.72956040  0.25359026    -0.20300
C451        C  0.95877848  0.73435627  0.25257696    -0.25500
C452        C  0.98363358  0.71326260  0.27804858     0.27100
H453        H  0.91114973  0.66411940  0.32862349     0.12900
N454        N  0.85675408  0.69950996  0.28361929    -0.82800
H455        H  0.97219625  0.75336731  0.23082339     0.17800
N456        N  0.02646596  0.71681504  0.27546213    -0.81400
H457        H  0.84893722  0.67954918  0.30553412     0.33400
H458        H  0.84471531  0.72706812  0.29180010     0.37900
H459        H  0.03451981  0.73627242  0.25319019     0.33400
H460        H  0.03689323  0.72973106  0.30178822     0.30000
H461        H  0.96507707  0.69334931  0.42080580     0.33400
H462        H  0.97940629  0.72290231  0.38423407     0.30000
H463        H  0.03315013  0.55663046  0.29754167     0.37900
H464        H  0.07604111  0.58388178  0.30063058     0.33400
C465        C  0.00321433  0.25254547  0.42036593    -0.20400
C466        C  0.02182120  0.22896551  0.39115369     0.35900
C467        C  0.00046079  0.19752323  0.37273721    -0.26300
C468        C  0.96062807  0.18933206  0.38275617     0.02300
C469        C  0.94093582  0.21459858  0.40972808     0.27100
C470        C  0.96243136  0.24602803  0.42832026    -0.25500
N471        N  0.06243668  0.23676515  0.38016879    -0.82800
H472        H  0.01546897  0.17855773  0.35146670     0.12900
C473        C  0.94098745  0.15261227  0.36678861     0.02300
N474        N  0.89948898  0.20760618  0.41868915    -0.81400
H475        H  0.94778330  0.26420143  0.45046831     0.17700
C476        C  0.93317349  0.12108622  0.39208632    -0.26300
C477        C  0.91762836  0.08454934  0.37776380     0.35800
C478        C  0.90923798  0.07935604  0.33730203    -0.20300
C479        C  0.91665277  0.11131655  0.31212782    -0.25500
C480        C  0.93235003  0.14790880  0.32651174     0.27100
H481        H  0.94027224  0.12449745  0.42303513     0.12900
N482        N  0.91194757  0.05241412  0.40426751    -0.82800
H483        H  0.91000383  0.10784198  0.28111678     0.17800
N484        N  0.93969325  0.18030631  0.30046265    -0.81400
H485        H  0.93950151  0.04644102  0.41749556     0.33400
H486        H  0.89223896  0.06184660  0.42618730     0.37900
H487        H  0.93188925  0.17203286  0.27168362     0.33400
H488        H  0.92072836  0.20358105  0.30869179     0.30000
H489        H  0.88944718  0.22880389  0.43915598     0.33400
H490        H  0.88299645  0.21181343  0.39297841     0.30000
H491        H  0.07879814  0.21077449  0.38429444     0.37900
H492        H  0.06275092  0.24288669  0.35023239     0.33400
C493        C  0.85813477  0.31119151  0.81754991    -0.20400
C494        C  0.89004701  0.28739867  0.80367175     0.35900
C495        C  0.91041017  0.26253824  0.82952253    -0.26300
C496        C  0.89948810  0.26071605  0.86900545     0.02300
C497        C  0.86652004  0.28270543  0.88264504     0.27100
C498        C  0.84619012  0.30769265  0.85685579    -0.25500
N499        N  0.90204502  0.28827344  0.76344381    -0.82800
H500        H  0.93556922  0.24534253  0.81893277     0.12900
C501        C  0.92430629  0.23785679  0.89653478     0.02300
N502        N  0.85432510  0.27999721  0.92287494    -0.81400
H503        H  0.82159461  0.32531017  0.86796416     0.17700
C504        C  0.94526191  0.25872630  0.92623464    -0.26300
C505        C  0.96809878  0.23863006  0.95408927     0.35800
C506        C  0.97083336  0.19652688  0.95157562    -0.20300
C507        C  0.94997483  0.17571440  0.92146696    -0.25500
C508        C  0.92662381  0.19599973  0.89395807     0.27100
H509        H  0.94319398  0.29094465  0.92800084     0.12900
N510        N  0.98746070  0.26086086  0.98546098    -0.82800
H511        H  0.95186053  0.14351412  0.91939446     0.17800
N512        N  0.90492849  0.17434739  0.86372391    -0.81400
H513        H  0.98297957  0.29146553  0.98251115     0.33400
H514        H  0.97358983  0.25285116  0.01160342     0.37900
H515        H  0.90987328  0.14373142  0.86581837     0.33400
H516        H  0.87439149  0.17863922  0.86864897     0.30000
H517        H  0.82968506  0.29819356  0.92837970     0.33400
H518        H  0.84475777  0.25065447  0.92733279     0.30000
H519        H  0.93220072  0.29690677  0.76254415     0.37900
H520        H  0.89950708  0.25933157  0.75165890     0.33400
C521        C  0.12016395  0.27376345  0.50486482    -0.20400
C522        C  0.13977273  0.24057174  0.48762978     0.35900
C523        C  0.16603829  0.21793692  0.51015511    -0.26300
C524        C  0.17390572  0.22811581  0.54942155     0.02300
C525        C  0.15876475  0.26400096  0.56530378     0.27100
C526        C  0.13181873  0.28640594  0.54292728    -0.25500
N527        N  0.13213213  0.22873016  0.44768881    -0.82800
H528        H  0.17859183  0.19095018  0.49752655     0.12900
C529        C  0.19264701  0.19795376  0.57462224     0.02300
N530        N  0.17060735  0.27739712  0.60404103    -0.81400
H531        H  0.11822342  0.31249355  0.55622790     0.17700
C532        C  0.23399439  0.19136917  0.57303927    -0.26300
C533        C  0.25172854  0.16028790  0.59416974     0.35800
C534        C  0.22736484  0.13554639  0.61773289    -0.20300
C535        C  0.18595544  0.14289906  0.61928734    -0.25500
C536        C  0.16832385  0.17315542  0.59756576     0.27100
H537        H  0.25231032  0.21002132  0.55457078     0.17300
N538        N  0.29420384  0.15427534  0.59186714    -0.82800
H539        H  0.16667756  0.12402848  0.63656367     0.17800
N540        N  0.12544395  0.17720931  0.59687357    -0.81400
H541        H  0.30787561  0.17728298  0.57640286     0.33400
H542        H  0.29872065  0.12830448  0.57510228     0.37900
H543        H  0.11176809  0.15541126  0.61390341     0.33400
H544        H  0.11825776  0.20459376  0.60991055     0.30000
H545        H  0.15696833  0.30446896  0.61121089     0.33400
H546        H  0.16036246  0.25679687  0.62431030     0.30000
H547        H  0.12108362  0.19942767  0.44732352     0.37900
H548        H  0.15935159  0.22897017  0.43270421     0.33400
C549        C  0.20393149  0.03326440  0.71675038    -0.20400
C550        C  0.20510305  0.99200107  0.72494564     0.35900
C551        C  0.17759672  0.97590523  0.75145284    -0.26300
C552        C  0.14819737  0.99958736  0.76911821     0.02300
C553        C  0.14721145  0.04071361  0.76151333     0.27100
C554        C  0.17522556  0.05715312  0.73564017    -0.25500
N555        N  0.23315578  0.96618120  0.70551220    -0.82800
H556        H  0.17831094  0.94434052  0.75760669     0.12900
C557        C  0.11752456  0.98035700  0.79399702     0.02300
N558        N  0.11724648  0.06542756  0.77943535    -0.81400
H559        H  0.17419411  0.08875135  0.72976306     0.17700
C560        C  0.11318281  0.99284202  0.83317431    -0.26300
C561        C  0.08474843  0.97484925  0.85753010     0.35800
C562        C  0.05983266  0.94359198  0.84248794    -0.20300
C563        C  0.06429976  0.93146209  0.80301248    -0.25500
C564        C  0.09277592  0.94940469  0.77872673     0.27100
H565        H  0.13240541  0.01639206  0.84511610     0.12900
N566        N  0.08203283  0.98811643  0.89758897    -0.82800
H567        H  0.04548545  0.90777921  0.79078391     0.17800
N568        N  0.09665898  0.93632273  0.73852478    -0.81400
H569        H  0.07572831  0.01859160  0.89797156     0.33400
H570        H  0.10997865  0.98436854  0.91091376     0.37900
H571        H  0.07665688  0.91289834  0.73197523     0.33400
H572        H  0.08855561  0.96004604  0.72081909     0.30000
H573        H  0.12074697  0.09504389  0.77096042     0.33400
H574        H  0.08933276  0.05570579  0.76873650     0.30000
H575        H  0.22534490  0.96480933  0.67577813     0.37900
H576        H  0.23060779  0.93706321  0.71568547     0.33400
C577        C  0.27200348  0.00755396  0.38958935    -0.20400
C578        C  0.25479882  0.97095296  0.40163364     0.35900
C579        C  0.23086329  0.94833684  0.37511253    -0.26300
C580        C  0.22246725  0.96199858  0.33742155     0.02300
C581        C  0.23767088  0.99933991  0.32603622     0.27100
C582        C  0.26221745  0.02159206  0.35208806    -0.25500
N583        N  0.26126527  0.95686395  0.44066045    -0.82800
H584        H  0.21832458  0.91999084  0.38395234     0.12900
C585        C  0.19802586  0.93693213  0.30980480     0.02300
N586        N  0.22866262  0.01422288  0.28774747    -0.81400
H587        H  0.27447734  0.04973206  0.34243111     0.17700
C588        C  0.16200029  0.95183930  0.29512987    -0.26300
C589        C  0.14023050  0.93109182  0.26576311     0.35800
C590        C  0.15477733  0.89455042  0.25041978    -0.20300
C591        C  0.18953579  0.87847149  0.26718854    -0.25500
C592        C  0.21139072  0.89932481  0.29651416     0.27100
H593        H  0.15125018  0.98040528  0.30582019     0.12900
N594        N  0.10421971  0.94814327  0.25086518    -0.82800
H595        H  0.20067671  0.85012724  0.25637485     0.17800
N596        N  0.24780347  0.88308000  0.31184223    -0.81400
H597        H  0.11122842  0.97626899  0.23995341     0.33400
H598        H  0.08441386  0.95201104  0.27423023     0.37900
H599        H  0.25299769  0.85479260  0.29959006     0.33400
H600        H  0.27146276  0.90144579  0.30304945     0.30000
H601        H  0.24166862  0.04239108  0.28408139     0.33400
H602        H  0.24180531  0.99511718  0.26705341     0.30000
H603        H  0.24736500  0.97686772  0.46000192     0.37900
H604        H  0.24712888  0.92923372  0.44436674     0.33400
C605        C  0.74700929  0.62968482  0.68594262    -0.20400
C606        C  0.72487438  0.66216354  0.70107539     0.35900
C607        C  0.69758527  0.68141177  0.67669169    -0.26300
C608        C  0.69034597  0.66779491  0.63812001     0.02300
C609        C  0.70776606  0.63176434  0.62513915     0.27100
C610        C  0.73621844  0.61324427  0.64902013    -0.25500
N611        N  0.73134257  0.67664109  0.74053422    -0.82800
H612        H  0.68401412  0.70878700  0.68710973     0.12900
C613        C  0.67039822  0.69501409  0.61033346     0.02300
N614        N  0.69796296  0.61531672  0.58699283    -0.81400
H615        H  0.75177297  0.58740610  0.63753099     0.17700
C616        C  0.69015916  0.70430925  0.57543911    -0.26300
C617        C  0.67737344  0.73549558  0.55194524     0.35800
C618        C  0.64491660  0.75936131  0.56410739    -0.20300
C619        C  0.62331669  0.74814676  0.59760148    -0.25500
C620        C  0.63540282  0.71593175  0.62049345     0.27100
H621        H  0.71706524  0.68856990  0.56713813     0.12900
N622        N  0.69809838  0.74300789  0.51614644    -0.82800
H623        H  0.59760407  0.76525429  0.60683734     0.17800
N624        N  0.61294842  0.70503681  0.65456594    -0.81400
H625        H  0.69630675  0.71719099  0.49849480     0.33400
H626        H  0.72826583  0.74855781  0.52283312     0.37900
H627        H  0.58805632  0.72338283  0.65804699     0.33400
H628        H  0.60192276  0.67605202  0.64971429     0.30000
H629        H  0.71372073  0.58901459  0.58164377     0.33400
H630        H  0.66756925  0.60753023  0.58706597     0.30000
H631        H  0.72275695  0.65391363  0.75937195     0.37900
H632        H  0.71298782  0.70095594  0.74689539     0.33400
C633        C  0.68040935  0.86522927  0.47092089    -0.20400
C634        C  0.67210218  0.90028630  0.44994716     0.35900
C635        C  0.70095057  0.91611752  0.42461464    -0.26300
C636        C  0.73805860  0.89773424  0.41949642     0.02300
C637        C  0.74613242  0.86216022  0.43909717     0.27100
C638        C  0.71737681  0.84632376  0.46459338    -0.25500
N639        N  0.63456922  0.92014170  0.45414275    -0.82800
H640        H  0.69461288  0.94342046  0.40938608     0.12900
C641        C  0.76894892  0.91703541  0.39497683     0.02300
N642        N  0.78368494  0.84244579  0.43315845    -0.81400
H643        H  0.72433342  0.81933681  0.48000505     0.17700
C644        C  0.80380106  0.93239220  0.41304828    -0.26300
C645        C  0.83319774  0.95231759  0.39128663     0.35800
C646        C  0.82738356  0.95723362  0.35062277    -0.20300
C647        C  0.79307609  0.94065676  0.33236099    -0.25500
C648        C  0.76369593  0.92070460  0.35419415     0.27100
H649        H  0.80780568  0.92915526  0.44437422     0.12900
N650        N  0.86897976  0.96735243  0.41026350    -0.82800
H651        H  0.78858669  0.94434500  0.30115988     0.17800
N652        N  0.72840404  0.90446264  0.33527302    -0.81400
H653        H  0.86848418  0.96147124  0.44024836     0.33400
H654        H  0.89314346  0.95164969  0.39853553     0.37900
H655        H  0.72899239  0.90986685  0.30519477     0.33400
H656        H  0.72897051  0.87350381  0.33822731     0.30000
H657        H  0.78515376  0.81669740  0.44986436     0.33400
H658        H  0.78477787  0.83311580  0.40375131     0.30000
H659        H  0.64028798  0.94937591  0.46402417     0.37900
H660        H  0.62103924  0.92136228  0.42647871     0.33400
C661        C  0.61937953  0.90919737  0.81078360    -0.20400
C662        C  0.62529181  0.95057833  0.80469897     0.35900
C663        C  0.64929682  0.97335573  0.83098633    -0.26300
C664        C  0.66781077  0.95573080  0.86315647     0.02300
C665        C  0.66385662  0.91434962  0.86823973     0.27100
C666        C  0.63973091  0.89157233  0.84217221    -0.25500
N667        N  0.60631681  0.97000938  0.77262584    -0.82800
H668        H  0.65248510  0.00520141  0.82693845     0.12900
C669        C  0.68839113  0.98102412  0.89341321     0.02300
N670        N  0.68380518  0.89580551  0.90046016    -0.81400
H671        H  0.63642968  0.85988824  0.84691174     0.17700
C672        C  0.66871870  0.98844438  0.92888416    -0.26300
C673        C  0.68751893  0.01010107  0.95948920     0.35800
C674        C  0.72681972  0.02517640  0.95471332    -0.20300
C675        C  0.74661296  0.01773385  0.91905556    -0.25500
C676        C  0.72768552  0.99572594  0.88828189     0.27100
H677        H  0.63874378  0.97662625  0.93312230     0.12900
N678        N  0.66713172  0.01519050  0.99605974    -0.82800
H679        H  0.77682655  0.02903839  0.91526648     0.17800
N680        N  0.74824235  0.98780301  0.85211508    -0.81400
H681        H  0.64024111  0.02985356  0.99071047     0.33400
H682        H  0.66023488  0.98692914  0.00671548     0.37900
H683        H  0.77692108  0.00061505  0.85299355     0.33400
H684        H  0.75208597  0.95696520  0.84953801     0.30000
H685        H  0.67748539  0.86520495  0.90050630     0.33400
H686        H  0.71462978  0.89880058  0.89598740     0.30000
H687        H  0.58832743  0.99272796  0.78401005     0.37900
H688        H  0.62861120  0.98312383  0.75559653     0.33400
C689        C  0.18851489  0.59029160  0.60828494    -0.20400
C690        C  0.17951468  0.60311714  0.56991997     0.35900
C691        C  0.20868475  0.62468190  0.54910307    -0.26300
C692        C  0.24610696  0.63371163  0.56603088     0.02300
C693        C  0.25593867  0.61903352  0.60306150     0.27100
C694        C  0.22723055  0.59748961  0.62368483    -0.25500
N695        N  0.14080000  0.59540188  0.55261634    -0.82800
H696        H  0.20176032  0.63581297  0.52026917     0.12900
C697        C  0.27442799  0.66066378  0.54643662     0.02300
N698        N  0.29485462  0.62702262  0.61995360    -0.81400
H699        H  0.23517531  0.58695843  0.65248511     0.17700
C700        C  0.27841220  0.69989915  0.56077823    -0.26300
C701        C  0.30946681  0.72478922  0.54807340     0.35800
C702        C  0.33761952  0.70997726  0.52072269    -0.20300
C703        C  0.33162219  0.67135162  0.50444226    -0.25500
C704        C  0.30051770  0.64642961  0.51734476     0.27100
H705        H  0.25813302  0.71077385  0.58317382     0.12900
N706        N  0.31272041  0.76452927  0.56404172    -0.82800
H707        H  0.35225949  0.65973107  0.48278925     0.17800
N708        N  0.29618504  0.60632363  0.50212133    -0.81400
H709        H  0.31550883  0.76282783  0.59451024     0.33400
H710        H  0.28615620  0.77939779  0.55776782     0.37900
H711        H  0.31761343  0.60057739  0.48056802     0.33400
H712        H  0.30210539  0.58694657  0.52502949     0.30000
H713        H  0.29713425  0.61470658  0.64779143     0.33400
H714        H  0.31593117  0.61252481  0.60235113     0.30000
H715        H  0.11999431  0.61230242  0.56834892     0.37900
H716        H  0.13988250  0.60547219  0.52380963     0.33400
C717        C  0.53400306  0.20758487  0.67381611    -0.20400
C718        C  0.54890331  0.24140512  0.69525925     0.35900
C719        C  0.57765570  0.26634973  0.67824010    -0.26300
C720        C  0.59243406  0.25792319  0.64087189     0.02300
C721        C  0.57847902  0.22417002  0.61957003     0.27100
C722        C  0.54929197  0.19942961  0.63616882    -0.25500
N723        N  0.53589181  0.24988988  0.73456780    -0.82800
H724        H  0.58919837  0.29217320  0.69443609     0.12900
C725        C  0.62326479  0.28429243  0.62451910     0.02300
N726        N  0.59454931  0.21482209  0.58148280    -0.81400
H727        H  0.53837145  0.17375845  0.61938923     0.17700
C728        C  0.66364653  0.27653117  0.63220339    -0.26300
C729        C  0.69387028  0.29795556  0.61331414     0.35800
C730        C  0.68340232  0.32744343  0.58651164    -0.20300
C731        C  0.64301026  0.33680971  0.58064682    -0.25500
C732        C  0.61266307  0.31557557  0.59971900     0.27100
H733        H  0.67164860  0.25265375  0.65161495     0.12900
N734        N  0.73499432  0.28790325  0.61932096    -0.82800
H735        H  0.63517574  0.35967714  0.56003055     0.17800
N736        N  0.57124954  0.32517127  0.59365783    -0.81400
H737        H  0.73850039  0.25781830  0.61161679     0.33400
H738        H  0.74150711  0.29142628  0.64921340     0.37900
H739        H  0.56869799  0.34948352  0.57512521     0.33400
H740        H  0.55738982  0.30096915  0.57913916     0.30000
H741        H  0.58165613  0.18849532  0.57004399     0.33400
H742        H  0.58637033  0.23748978  0.56255587     0.30000
H743        H  0.54810470  0.22792921  0.75219104     0.37900
H744        H  0.54785497  0.27705648  0.74498165     0.33400
C745        C  0.47880462  0.24855449  0.28387415    -0.20400
C746        C  0.49023850  0.21212884  0.30123183     0.35900
C747        C  0.46474157  0.19371639  0.32809814    -0.26300
C748        C  0.42889857  0.21117514  0.33977506     0.02300
C749        C  0.41896711  0.24911705  0.32585697     0.27100
C750        C  0.44380691  0.26728566  0.29774575    -0.25500
N751        N  0.52739527  0.19333811  0.29141533    -0.82800
H752        H  0.47243984  0.16481397  0.33947928     0.12900
C753        C  0.40086640  0.18627112  0.36271615     0.02300
N754        N  0.38401074  0.26905864  0.34038354    -0.81400
H755        H  0.43516996  0.29571485  0.28600446     0.17700
C756        C  0.40659266  0.18223849  0.40325297    -0.26300
C757        C  0.38697954  0.15165888  0.42397121     0.35800
C758        C  0.36169320  0.12410323  0.40340647    -0.20300
C759        C  0.35472783  0.12983081  0.36311239    -0.25500
C760        C  0.37402908  0.16035208  0.34268125     0.27100
H761        H  0.42766595  0.20200709  0.41840683     0.12900
N762        N  0.39339798  0.14811493  0.46544634    -0.82800
H763        H  0.33552570  0.10922289  0.34672309     0.17800
N764        N  0.36863497  0.16344020  0.30097640    -0.81400
H765        H  0.41309099  0.17039013  0.47588290     0.33400
H766        H  0.36598425  0.15313251  0.47924655     0.37900
H767        H  0.34924513  0.14104662  0.29024181     0.33400
H768        H  0.35460260  0.19051453  0.29571959     0.30000
H769        H  0.38140428  0.29711057  0.32783611     0.33400
H770        H  0.35880707  0.25247049  0.33145876     0.30000
H771        H  0.55051175  0.21177879  0.30228351     0.37900
H772        H  0.53024774  0.16607802  0.30546748     0.33400
C773        C  0.58585343  0.23538506  0.18440945    -0.20400
C774        C  0.59009625  0.19390106  0.19005044     0.35900
C775        C  0.61977983  0.17265391  0.16975285    -0.26300
C776        C  0.64538361  0.19170251  0.14352246     0.02300
C777        C  0.64264354  0.23326560  0.13899639     0.27100
C778        C  0.61298020  0.25465257  0.15941232    -0.25500
N779        N  0.56333269  0.17260254  0.21490294    -0.82800
H780        H  0.62169284  0.14067481  0.17323951     0.12900
C781        C  0.67206858  0.16718156  0.11822500     0.02300
N782        N  0.66963012  0.25341083  0.11315001    -0.81400
H783        H  0.61071723  0.28648974  0.15527303     0.17700
C784        C  0.66419093  0.16485390  0.07785690    -0.26300
C785        C  0.68705078  0.14057465  0.05267884     0.35800
C786        C  0.71859487  0.11773144  0.06825469    -0.20300
C787        C  0.72667994  0.12046970  0.10881286    -0.25500
C788        C  0.70375708  0.14500241  0.13391195     0.27100
H789        H  0.63971890  0.18190664  0.06598674     0.12900
N790        N  0.67842618  0.13939739  0.01132161    -0.82800
H791        H  0.75062128  0.10301674  0.12109982     0.17800
N792        N  0.71249807  0.14756815  0.17519966    -0.81400
H793        H  0.70312635  0.15168402  0.99702975     0.33400
H794        H  0.65401251  0.15742444  0.00484113     0.37900
H795        H  0.73659798  0.12931040  0.18214080     0.33400
H796        H  0.72168047  0.17687693  0.18170687     0.30000
H797        H  0.66366213  0.28394383  0.11291690     0.33400
H798        H  0.69855913  0.25053796  0.12455739     0.30000
H799        H  0.58043847  0.15853681  0.23624465     0.37900
H800        H  0.54873076  0.15047938  0.19798509     0.33400
C801        C  0.08100877  0.19234948  0.04914413    -0.20400
C802        C  0.10306220  0.17308928  0.07902715     0.35900
C803        C  0.13239022  0.19465339  0.10060589    -0.26300
C804        C  0.14074724  0.23475386  0.09309416     0.02300
C805        C  0.11954600  0.25388881  0.06314599     0.27100
C806        C  0.09019975  0.23251525  0.04137823    -0.25500
N807        N  0.09574973  0.13187865  0.08778271    -0.82800
H808        H  0.14904711  0.18005527  0.12349254     0.12900
C809        C  0.17128935  0.25653781  0.11741896     0.02300
N810        N  0.12726475  0.29527646  0.05560328    -0.81400
H811        H  0.07383291  0.24778767  0.01877793     0.17700
C812        C  0.20560063  0.27212375  0.09962531    -0.26300
C813        C  0.23469183  0.29351088  0.12158521     0.35800
C814        C  0.22963655  0.29956522  0.16255559    -0.20300
C815        C  0.19531252  0.28330564  0.18023774    -0.25500
C816        C  0.16613990  0.26205098  0.15814898     0.27100
H817        H  0.20975873  0.26780618  0.06833741     0.12900
N818        N  0.26877454  0.30954221  0.10174444    -0.82800
H819        H  0.19085218  0.28750011  0.21146380     0.17800
N820        N  0.13094180  0.24652113  0.17681828    -0.81400
H821        H  0.25854202  0.32852806  0.07999228     0.33400
H822        H  0.28379375  0.28595662  0.08801351     0.37900
H823        H  0.13160458  0.25311370  0.20690598     0.33400
H824        H  0.10621545  0.26127862  0.16533529     0.30000
H825        H  0.10920464  0.30497324  0.03261727     0.33400
H826        H  0.11895473  0.31169520  0.08057853     0.30000
H827        H  0.11297894  0.12319053  0.11177228     0.37900
H828        H  0.10548208  0.11480194  0.06376223     0.33400
C829        C  0.25668235  0.38244885  0.28118681    -0.20400
C830        C  0.22331943  0.36715145  0.30168849     0.35900
C831        C  0.20373980  0.39162080  0.32939571    -0.26300
C832        C  0.21738269  0.43058868  0.33776996     0.02300
C833        C  0.25346955  0.44382030  0.32107075     0.27100
C834        C  0.27271711  0.41985862  0.29288833    -0.25500
N835        N  0.20882847  0.32728774  0.29366519    -0.82800
H836        H  0.17654872  0.38097410  0.34307607     0.12900
C837        C  0.19089312  0.45825097  0.35993777     0.02300
N838        N  0.27006450  0.48203994  0.33196370    -0.81400
H839        H  0.29904559  0.43173921  0.27862356     0.17700
C840        C  0.17827201  0.44907376  0.39794562    -0.26300
C841        C  0.14837663  0.47153033  0.41693270     0.35800
C842        C  0.12975319  0.50311656  0.39716975    -0.20300
C843        C  0.14450545  0.51356396  0.36006578    -0.25500
C844        C  0.17449923  0.49151429  0.34142137     0.27100
H845        H  0.19114249  0.42385459  0.41265157     0.12900
N846        N  0.13716369  0.46198759  0.45611778    -0.82800
H847        H  0.13165714  0.53808470  0.34429242     0.17800
N848        N  0.18675611  0.50186573  0.30269609    -0.81400
H849        H  0.12759075  0.43220725  0.45623549     0.33400
H850        H  0.16267283  0.46470927  0.47393229     0.37900
H851        H  0.16154018  0.50088568  0.28438056     0.33400
H852        H  0.19760632  0.53123681  0.30377031     0.30000
H853        H  0.29881808  0.47763592  0.34324403     0.33400
H854        H  0.27286787  0.49883071  0.30660466     0.30000
H855        H  0.23142484  0.30771320  0.30181007     0.37900
H856        H  0.18406939  0.32077388  0.31112998     0.33400
C857        C  0.41657554  0.67268208  0.92181171    -0.20400
C858        C  0.40347000  0.70567965  0.90000512     0.35900
C859        C  0.42788587  0.72147474  0.87076906    -0.26300
C860        C  0.46523178  0.70505981  0.86198894     0.02300
C861        C  0.47756062  0.67068634  0.88170830     0.27100
C862        C  0.45319076  0.65488418  0.91142082    -0.25500
N863        N  0.36561288  0.72388263  0.90754530    -0.82800
H864        H  0.41815149  0.74795254  0.85586005     0.12900
C865        C  0.49232870  0.72746277  0.83559188     0.02300
N866        N  0.51504047  0.65244340  0.87193456    -0.81400
H867        H  0.46353509  0.62925187  0.92724387     0.17700
C868        C  0.52901848  0.74192957  0.85048277    -0.26300
C869        C  0.55079207  0.77149831  0.83099698     0.35800
C870        C  0.53558575  0.78736252  0.79578904    -0.20300
C871        C  0.50090132  0.76969931  0.77897728    -0.25500
C872        C  0.47918772  0.73998000  0.79849071     0.27100
H873        H  0.53960605  0.73220915  0.87878910     0.12900
N874        N  0.58751907  0.78616406  0.84804475    -0.82800
H875        H  0.48929396  0.78048861  0.75149048     0.17800
N876        N  0.44287269  0.72364410  0.78163209    -0.81400
H877        H  0.58141602  0.79742746  0.87616383     0.33400
H878        H  0.60694865  0.76213952  0.85082657     0.37900
H879        H  0.43699709  0.73631442  0.75446121     0.33400
H880        H  0.44744077  0.69323714  0.77627758     0.30000
H881        H  0.51983650  0.62746385  0.88913655     0.33400
H882        H  0.51294432  0.64208571  0.84286898     0.30000
H883        H  0.37078442  0.75390099  0.91500720     0.37900
H884        H  0.34875571  0.72265496  0.88161199     0.33400
C885        C  0.31245050  0.69316057  0.02286815    -0.20400
C886        C  0.31366730  0.73522440  0.02243856     0.35900
C887        C  0.28464480  0.75710961  0.04288541    -0.26300
C888        C  0.25452108  0.73782192  0.06409879     0.02300
C889        C  0.25247738  0.69583926  0.06379986     0.27100
C890        C  0.28141845  0.67395553  0.04312676    -0.25500
N891        N  0.34527479  0.75592967  0.00291044    -0.82800
H892        H  0.28623133  0.78941264  0.04306592     0.12900
C893        C  0.22689423  0.76196655  0.08840744     0.02300
N894        N  0.22165085  0.67564598  0.08526435    -0.81400
H895        H  0.28013969  0.64166678  0.04342028     0.17700
C896        C  0.18568560  0.76071547  0.08044466    -0.26300
C897        C  0.15891504  0.78340064  0.10300917     0.35800
C898        C  0.17357114  0.80797503  0.13421565    -0.20300
C899        C  0.21492765  0.80867429  0.14227329    -0.25500
C900        C  0.24164810  0.78584077  0.11984562     0.27100
H901        H  0.17425553  0.74211052  0.05646660     0.12900
N902        N  0.11693720  0.78089749  0.09430673    -0.82800
H903        H  0.22668957  0.82737305  0.16599878     0.17800
N904        N  0.28374454  0.78656911  0.12898393    -0.81400
H905        H  0.10778954  0.75111560  0.09649998     0.33400
H906        H  0.11262053  0.78945844  0.06528964     0.37900
H907        H  0.28979169  0.80586859  0.15278842     0.33400
H908        H  0.29154231  0.75799878  0.13783721     0.30000
H909        H  0.22427884  0.64473097  0.08189784     0.33400
H910        H  0.22616823  0.68230327  0.11505020     0.30000
H911        H  0.33235919  0.77452671  0.98221884     0.37900
H912        H  0.36039491  0.77396017  0.02365509     0.33400
C913        C  0.66733852  0.60874381  0.04047093    -0.20400
C914        C  0.70904472  0.60425130  0.03496341     0.35900
C915        C  0.73592914  0.62636023  0.05884664    -0.26300
C916        C  0.72209603  0.65183995  0.08874259     0.02300
C917        C  0.68067207  0.65544572  0.09510309     0.27100
C918        C  0.65370925  0.63411150  0.07073128    -0.25500
N919        N  0.72404854  0.57660359  0.00598629    -0.82800
H920        H  0.76788087  0.62358428  0.05433531     0.12900
C921        C  0.75128962  0.67515902  0.11285159     0.02300
N922        N  0.66626230  0.68055139  0.12651645    -0.81400
H923        H  0.62184245  0.63728540  0.07547142     0.17700
C924        C  0.75020786  0.71685643  0.11211750    -0.26300
C925        C  0.77773083  0.74015881  0.13385714     0.35800
C926        C  0.80717812  0.72147168  0.15686957    -0.20300
C927        C  0.80762130  0.67961383  0.15814315    -0.25500
C928        C  0.78005442  0.65625867  0.13624035     0.27100
H929        H  0.72806008  0.73143258  0.09417399     0.12900
N930        N  0.77543080  0.78275119  0.13249186    -0.82800
H931        H  0.83017026  0.66494398  0.17547773     0.17800
N932        N  0.78124316  0.61347030  0.13746116    -0.81400
H933        H  0.74690751  0.79118706  0.14175897     0.33400
H934        H  0.77871791  0.79116896  0.10331909     0.37900
H935        H  0.80449890  0.60427668  0.15571665     0.33400
H936        H  0.75456629  0.60365472  0.15014247     0.30000
H937        H  0.63496972  0.67996894  0.12725709     0.33400
H938        H  0.67612802  0.66852713  0.15287471     0.30000
H939        H  0.75534700  0.57732166  0.00552074     0.37900
H940        H  0.71571865  0.54790925  0.01447600     0.33400
C941        C  0.75018483  0.40835927  0.79844250    -0.20400
C942        C  0.72728140  0.39320638  0.82968413     0.35900
C943        C  0.69856588  0.41728842  0.84799427    -0.26300
C944        C  0.69137927  0.45612455  0.83533202     0.02300
C945        C  0.71138138  0.46995119  0.80179322     0.27100
C946        C  0.74069244  0.44609594  0.78388876    -0.25500
N947        N  0.73346642  0.35369705  0.84357001    -0.82800
H948        H  0.68338224  0.40620401  0.87363302     0.12900
C949        C  0.66786871  0.48362888  0.86083876     0.02300
N950        N  0.70277540  0.50876247  0.78690428    -0.81400
H951        H  0.75731006  0.45792613  0.75947234     0.17700
C952        C  0.68584443  0.51973000  0.87317396    -0.26300
C953        C  0.66868845  0.54372022  0.90236644     0.35800
C954        C  0.63318112  0.53102698  0.92097345    -0.20300
C955        C  0.61334416  0.49650017  0.90635571    -0.25500
C956        C  0.63032809  0.47269152  0.87642559     0.27100
H957        H  0.71465697  0.52856861  0.86154370     0.12900
N958        N  0.68830874  0.58042188  0.91364891    -0.82800
H959        H  0.58560725  0.48678622  0.91962064     0.17800
N960        N  0.61033666  0.43683115  0.86275066    -0.81400
H961        H  0.69034691  0.59819231  0.88888658     0.33400
H962        H  0.71740389  0.57393274  0.92282566     0.37900
H963        H  0.58317985  0.43289416  0.87735235     0.33400
H964        H  0.60332285  0.44041888  0.83312874     0.30000
H965        H  0.72032261  0.51471194  0.76236955     0.33400
H966        H  0.67295857  0.50837488  0.77739720     0.30000
H967        H  0.70634178  0.33795219  0.84114536     0.37900
H968        H  0.74130575  0.35575801  0.87327224     0.33400
C969        C  0.15454734  0.55127072  0.74067781    -0.20400
C970        C  0.18803479  0.57328142  0.75548294     0.35900
C971        C  0.20902834  0.55915801  0.78797503    -0.26300
C972        C  0.19645616  0.52447665  0.80649963     0.02300
C973        C  0.15992006  0.50598093  0.79558043     0.27100
C974        C  0.13906292  0.51970388  0.76268461    -0.25500
N975        N  0.20195903  0.60851303  0.73617474    -0.82800
H976        H  0.23686062  0.57353448  0.79714489     0.12900
C977        C  0.22577147  0.50315675  0.83041445     0.02300
N978        N  0.14554368  0.47191913  0.81647789    -0.81400
H979        H  0.11277364  0.50340042  0.75231953     0.17700
C980        C  0.22651511  0.50802723  0.87127515    -0.26300
C981        C  0.25344759  0.48621952  0.89417763     0.35800
C982        C  0.28049414  0.46006309  0.87539927    -0.20300
C983        C  0.27994864  0.45601334  0.83439173    -0.25500
C984        C  0.25265762  0.47702210  0.81172415     0.27100
H985        H  0.20542154  0.52801420  0.88523537     0.12900
N986        N  0.25227506  0.48926814  0.93623776    -0.82800
H987        H  0.30054927  0.43580924  0.81997793     0.17800
N988        N  0.25187352  0.47180964  0.76973487    -0.81400
H989        H  0.23057733  0.50968576  0.94524004     0.33400
H990        H  0.24311169  0.46150527  0.94659607     0.37900
H991        H  0.27399057  0.45190910  0.76059949     0.33400
H992        H  0.22442487  0.45853575  0.76193875     0.30000
H993        H  0.11804695  0.46199083  0.80493683     0.33400
H994        H  0.16572510  0.44869109  0.81198934     0.30000
H995        H  0.22726604  0.62059156  0.75038733     0.37900
H996        H  0.17946223  0.62983216  0.73862285     0.33400
C997        C  0.43137230  0.18067121  0.77217270    -0.20400
C998        C  0.45252923  0.20222521  0.80173972     0.35900
C999        C  0.43145101  0.22472336  0.82953807    -0.26300
C1000       C  0.38948866  0.22459524  0.82983558     0.02300
C1001       C  0.36835545  0.19869018  0.80357794     0.27100
C1002       C  0.38953850  0.17733720  0.77446514    -0.25500
N1003       N  0.49554828  0.20230474  0.80249394    -0.82800
H1004       H  0.44803359  0.24437629  0.84945666     0.12900
C1005       C  0.36900488  0.25654875  0.85279002     0.02300
N1006       N  0.32547081  0.19555680  0.80563557    -0.81400
H1007       H  0.37328004  0.16003994  0.75229879     0.17700
C1008       C  0.34206687  0.28101434  0.83307424    -0.26300
C1009       C  0.32872063  0.31677053  0.84996089     0.35800
C1010       C  0.34330378  0.32934539  0.88726524    -0.20300
C1011       C  0.36791941  0.30334274  0.90826690    -0.25500
C1012       C  0.38064202  0.26698988  0.89158167     0.27100
H1013       H  0.33305322  0.27369211  0.80320898     0.12900
N1014       N  0.30151201  0.34067741  0.82818274    -0.82800
H1015       H  0.37843328  0.31185492  0.93737754     0.17800
N1016       N  0.40638579  0.24129336  0.91334810    -0.81400
H1017       H  0.31486156  0.34765425  0.80149032     0.33400
H1018       H  0.27572477  0.32361662  0.82220026     0.37900
H1019       H  0.41244091  0.25344073  0.94125584     0.33400
H1020       H  0.39084708  0.21449005  0.91744593     0.30000
H1021       H  0.31448367  0.17556263  0.78415463     0.33400
H1022       H  0.31837519  0.18344211  0.83276836     0.30000
H1023       H  0.50463438  0.17316202  0.80778480     0.37900
H1024       H  0.50662040  0.22010667  0.82570932     0.33400
C1025       C  0.62575639  0.44874419  0.31158571    -0.20400
C1026       C  0.62427173  0.40731961  0.30238865     0.35900
C1027       C  0.65097052  0.38164141  0.32138254    -0.26300
C1028       C  0.67777326  0.39629021  0.35024929     0.02300
C1029       C  0.68103106  0.43781488  0.35726427     0.27100
C1030       C  0.65586986  0.46338722  0.33713137    -0.25500
N1031       N  0.59485068  0.39107513  0.27540973    -0.82800
H1032       H  0.64887506  0.34976033  0.31583733     0.12900
C1033       C  0.69671980  0.36883433  0.37825801     0.02300
N1034       N  0.70811502  0.45386658  0.38670393    -0.81400
H1035       H  0.65849093  0.49507897  0.34340846     0.17700
C1036       C  0.73775675  0.37314010  0.38667323    -0.26300
C1037       C  0.75315622  0.36267136  0.42346344     0.35800
C1038       C  0.72674758  0.34718254  0.45184150    -0.20300
C1039       C  0.68798955  0.33520082  0.43988907    -0.25500
C1040       C  0.67242424  0.34642197  0.40356608     0.27100
H1041       H  0.75675725  0.38879967  0.36628320     0.12900
N1042       N  0.79462365  0.37017919  0.43276543    -0.82800
H1043       H  0.66815377  0.32079770  0.46038551     0.17800
N1044       N  0.63102836  0.33847069  0.39411611    -0.81400
H1045       H  0.80949188  0.38242938  0.40886826     0.33400
H1046       H  0.80786443  0.34262445  0.43777918     0.37900
H1047       H  0.61783076  0.32047703  0.41524865     0.33400
H1048       H  0.61592948  0.36560882  0.39524285     0.30000
H1049       H  0.70734066  0.48502976  0.38765560     0.33400
H1050       H  0.69801819  0.44442170  0.41399493     0.30000
H1051       H  0.56684488  0.39384836  0.28866642     0.37900
H1052       H  0.59919161  0.36050929  0.27079666     0.33400
C1053       C  0.47067190  0.71062800  0.46140582    -0.20400
C1054       C  0.49357203  0.73013304  0.43281241     0.35900
C1055       C  0.51763615  0.70763945  0.40729509    -0.26300
C1056       C  0.51891577  0.66605056  0.40998752     0.02300
C1057       C  0.49738618  0.64664484  0.43963664     0.27100
C1058       C  0.47368223  0.66921872  0.46523414    -0.25500
N1059       N  0.49055105  0.77230999  0.42798823    -0.82800
H1060       H  0.53392070  0.72241298  0.38423565     0.12900
C1061       C  0.53834136  0.64204540  0.37906038     0.02300
N1062       N  0.49835208  0.60390820  0.44248091    -0.81400
H1063       H  0.45623351  0.65423518  0.48734997     0.17700
C1064       C  0.57060862  0.61803123  0.38912236    -0.26300
C1065       C  0.58233425  0.58649912  0.36443094     0.35800
C1066       C  0.56151566  0.57904982  0.32866140    -0.20300
C1067       C  0.53217825  0.60622774  0.31688127    -0.25500
C1068       C  0.51997066  0.63732894  0.34198899     0.27100
H1069       H  0.58487897  0.62199725  0.41758375     0.12900
N1070       N  0.61393550  0.56111751  0.37700739    -0.82800
H1071       H  0.51669862  0.60174680  0.28912979     0.17800
N1072       N  0.48735612  0.66254971  0.33102993    -0.81400
H1073       H  0.63967306  0.57865842  0.38157634     0.33400
H1074       H  0.60580077  0.54891086  0.40382714     0.37900
H1075       H  0.47734679  0.65536688  0.30263093     0.33400
H1076       H  0.46341655  0.65663279  0.34974061     0.30000
H1077       H  0.48101668  0.59438670  0.46601772     0.33400
H1078       H  0.48501894  0.59168158  0.41709543     0.30000
H1079       H  0.51923343  0.78481904  0.43107570     0.37900
H1080       H  0.48054467  0.77737422  0.39943132     0.33400
loop_ 
_geom_bond_atom_site_label_1 
_geom_bond_atom_site_label_2 
_geom_bond_distance 
_geom_bond_site_symmetry_2 
_ccdc_geom_bond_type 
C1            N2   1.358       .  A
C1            N6   1.358       .  A
C1         C1025   1.489       .  S
N2            C3   1.353       .  A
C3            N4   1.355       .  A
C3         C1066   1.487       .  S
N4            C5   1.354       .  A
C5            N6   1.359       .  A
C5           C60   1.449       .  S
C7            N8   1.360       .  A
C7           N12   1.356       .  A
C7          C982   1.474       .  S
N8            C9   1.359       .  A
C9           N10   1.356       .  A
C9           C65   1.454       .  S
N10          C11   1.355       .  A
C11          N12   1.354       .  A
C11        C1010   1.489       .  S
C13          N14   1.352       .  A
C13          N18   1.354   1_554  A
C13         C913   1.482       .  S
N14          C15   1.355       .  A
C15          N16   1.360   1_554  A
C15          C80   1.462       .  S
N16          C17   1.362       .  A
C17          N18   1.359       .  A
C17         C954   1.489       .  S
C19          N20   1.357   1_554  A
C19          N24   1.354       .  A
C19         C885   1.483       .  S
N20          C21   1.362       .  A
C21          N22   1.366       .  A
C21         C857   1.498       .  S
N22          C23   1.363   1_556  A
C23          N24   1.355       .  A
C23          C73   1.475       .  S
C25          N26   1.356       .  A
C25          N30   1.361       .  A
C25         C814   1.497       .  S
N26          C27   1.358       .  A
C27          N28   1.358       .  A
C27          C61   1.467       .  S
N28          C29   1.361       .  A
C29          N30   1.362       .  A
C29         C829   1.491       .  S
C31          N32   1.356       .  A
C31          N36   1.357       .  A
C31         C773   1.496       .  S
N32          C33   1.361       .  A
C33          N34   1.368       .  A
C33         C745   1.505       .  S
N34          C35   1.365       .  A
C35          N36   1.360       .  A
C35          C59   1.480       .  S
Zr37         O38   2.439       .  S
Zr37         O39   2.448       .  S
Zr37         O40   2.446       .  S
Zr37         O43   2.432       .  S
Zr37         O45   2.379       .  S
Zr37         O46   2.385       .  S
Zr37         O47   2.411       .  S
Zr37         O48   2.414       .  S
O38          H94   0.990       .  S
O38         H102   0.990       .  S
O39          C59   1.287       .  A
O40          C61   1.287       .  A
O41         Zr51   2.412       .  S
O41          C60   1.279       .  A
O42         Zr50   2.412       .  S
O42          C61   1.282       .  A
O43          C60   1.284       .  A
O44         Zr52   2.433       .  S
O44          C59   1.285       .  A
O45         Zr50   2.382       .  S
O45         Zr52   2.374       .  S
O46         Zr51   2.386       .  S
O46         Zr52   2.363       .  S
O46          H81   0.966       .  S
O47         Zr50   2.388       .  S
O47         Zr67   2.397       .  S
O47          H84   0.965       .  S
O48         Zr51   2.381       .  S
O48         Zr67   2.404       .  S
Zr49         O74   2.438   1_554  S
Zr49         O68   2.434       .  S
Zr49         O76   2.434       .  S
Zr49         O64   2.439   1_554  S
Zr49         O55   2.404       .  S
Zr49         O56   2.406       .  S
Zr49         O57   2.378       .  S
Zr49         O58   2.389       .  S
Zr50         O69   2.436       .  S
Zr50         O62   2.434       .  S
Zr50         O63   2.405       .  S
Zr50         O56   2.387       .  S
Zr50         O57   2.389       .  S
Zr51         O53   2.436       .  S
Zr51         O75   2.441       .  S
Zr51         O77   2.411       .  S
Zr51         O55   2.392       .  S
Zr51         O58   2.377       .  S
Zr52         O78   2.435       .  S
Zr52         O79   2.436       .  S
Zr52         O54   2.436       .  S
Zr52         O55   2.393       .  S
Zr52         O56   2.398       .  S
O53          H90   0.990       .  S
O54          H85   0.990       .  S
O54          H99   0.990       .  S
O56          H82   0.967       .  S
O57         Zr67   2.370       .  S
O58         Zr67   2.373       .  S
O58          H83   0.966       .  S
O62          H98   0.990       .  S
O63          C65   1.278   1_554  A
O64          C65   1.285       .  A
O66         Zr67   2.439       .  S
O66          H95   0.990       .  S
Zr67         O70   2.436       .  S
Zr67         O71   2.439       .  S
Zr67         O72   2.442       .  S
O68          C73   1.283       .  A
O69          H86   0.990       .  S
O69         H101   0.990       .  S
O70          H87   0.990       .  S
O71          H91   0.990       .  S
O71         H100   0.990       .  S
O72          C73   1.287       .  A
O74          H93   0.990       .  S
O74          H97   0.990       .  S
O75          H89   0.990       .  S
O75          H96   0.990       .  S
O76          C80   1.284       .  A
O77          C80   1.282       .  A
O78          H88   0.990       .  S
O79          H92   0.990       .  S
C103        N104   1.362       .  A
C103        N108   1.356       .  A
C103        C997   1.479       .  S
N104        C105   1.363       .  A
C105        N106   1.356       .  A
C105        C162   1.459       .  S
N106        C107   1.356       .  A
C107        N108   1.353       .  A
C107        C717   1.489       .  S
C109        N110   1.357       .  A
C109        N114   1.356       .  A
C109       C1053   1.472       .  S
N110        C111   1.356       .  A
C111        N112   1.356       .  A
C111        C167   1.454       .  S
N112        C113   1.357       .  A
C113        N114   1.356       .  A
C113        C702   1.489       .  S
C115        N116   1.362       .  A
C115        N120   1.361       .  A
C115        C870   1.496       .  S
N116        C117   1.358       .  A
C117        N118   1.358       .  A
C117        C182   1.469       .  S
N118        C119   1.357       .  A
C119        N120   1.360       .  A
C119        C661   1.496       .  S
C121        N122   1.359       .  A
C121        N126   1.360       .  A
C121        C618   1.492       .  S
N122        C123   1.357       .  A
C123        N124   1.358       .  A
C123        C175   1.469       .  S
N124        C125   1.358       .  A
C125        N126   1.360       .  A
C125        C633   1.496       .  S
C127        N128   1.364       .  A
C127        N132   1.359       .  A
C127        C758   1.499       .  S
N128        C129   1.364       .  A
C129        N130   1.359       .  A
C129        C163   1.474       .  S
N130        C131   1.358       .  A
C131        N132   1.357       .  A
C131        C577   1.496       .  S
C133        N134   1.363       .  A
C133        N138   1.362       .  A
C133        C534   1.496       .  S
N134        C135   1.362       .  A
C135        N136   1.355       .  A
C135        C161   1.470       .  S
N136        C137   1.353       .  A
C137        N138   1.357       .  A
C137        C549   1.488       .  S
Zr139       O140   2.438       .  S
Zr139       O141   2.430       .  S
Zr139       O142   2.441       .  S
Zr139       O145   2.433       .  S
Zr139       O147   2.385   1_545  S
Zr139       O148   2.385   1_545  S
Zr139       O149   2.403   1_545  S
Zr139       O150   2.405       .  S
O140        H196   0.990       .  S
O140        H204   0.990       .  S
O141        C161   1.283       .  A
O142        C163   1.285       .  A
O143       Zr153   2.428   1_545  S
O143        C162   1.283       .  A
O144       Zr152   2.444       .  S
O144        C163   1.287   1_565  A
O145        C162   1.284       .  A
O146       Zr154   2.428       .  S
O146        C161   1.285   1_565  A
O147       Zr152   2.385       .  S
O147       Zr154   2.377       .  S
O148       Zr153   2.384       .  S
O148       Zr154   2.367       .  S
O148        H183   0.965   1_565  S
O149       Zr152   2.394       .  S
O149       Zr169   2.390       .  S
O149        H186   0.966       .  S
O150       Zr153   2.391   1_545  S
O150       Zr169   2.402   1_545  S
Zr151       O176   2.441       .  S
Zr151       O170   2.432       .  S
Zr151       O178   2.447       .  S
Zr151       O166   2.429       .  S
Zr151       O157   2.406       .  S
Zr151       O158   2.405       .  S
Zr151       O159   2.380       .  S
Zr151       O160   2.380       .  S
Zr152       O171   2.435       .  S
Zr152       O164   2.436       .  S
Zr152       O165   2.422       .  S
Zr152       O158   2.398       .  S
Zr152       O159   2.393       .  S
Zr153       O155   2.435   1_565  S
Zr153       O177   2.438       .  S
Zr153       O179   2.418       .  S
Zr153       O157   2.397       .  S
Zr153       O160   2.392       .  S
Zr154       O180   2.434       .  S
Zr154       O181   2.436       .  S
Zr154       O156   2.439       .  S
Zr154       O157   2.400       .  S
Zr154       O158   2.388       .  S
O155        H192   0.990       .  S
O156        H187   0.990       .  S
O156        H201   0.990       .  S
O158        H184   0.966       .  S
O159       Zr169   2.372       .  S
O160       Zr169   2.376       .  S
O160        H185   0.966       .  S
O164        H200   0.990       .  S
O165        C167   1.282       .  A
O166        C167   1.283       .  A
O168       Zr169   2.437   1_545  S
O168        H197   0.991       .  S
Zr169       O172   2.437       .  S
Zr169       O173   2.438       .  S
Zr169       O174   2.421       .  S
O170        C175   1.284       .  A
O171        H188   0.990       .  S
O171        H203   0.990       .  S
O172        H189   0.990       .  S
O173        H193   0.990       .  S
O173        H202   0.989   1_565  S
O174        C175   1.281       .  A
O176        H195   0.991       .  S
O176        H199   0.990       .  S
O177        H191   0.990       .  S
O177        H198   0.990       .  S
O178        C182   1.286       .  A
O179        C182   1.281       .  A
O180        H190   0.990       .  S
O181        H194   0.990       .  S
C205        N206   1.363   1_655  A
C205        N210   1.365       .  A
C205        C506   1.485       .  S
N206        C207   1.358   1_556  A
C207        N208   1.351       .  A
C207        C801   1.499       .  S
N208        C209   1.357       .  A
C209        N210   1.358   1_454  A
C209        C263   1.470   1_455  S
C211        N212   1.360       .  A
C211        N216   1.359       .  A
C211        C590   1.491       .  S
N212        C213   1.359       .  A
C213        N214   1.356       .  A
C213        C284   1.464       .  S
N214        C215   1.356       .  A
C215        N216   1.358       .  A
C215        C898   1.486       .  S
C217        N218   1.360       .  A
C217        N222   1.359   1_565  A
C217        C646   1.481       .  S
N218        C219   1.358       .  A
C219        N220   1.358   1_565  A
C219        C269   1.464       .  S
N220        C221   1.360       .  A
C221        N222   1.359       .  A
C221        C478   1.488       .  S
C223        N224   1.360       .  A
C223        N228   1.359       .  A
C223        C450   1.476       .  S
N224        C225   1.358       .  A
C225        N226   1.352       .  A
C225        C926   1.482       .  S
N226        C227   1.354       .  A
C227        N228   1.356       .  A
C227        C277   1.459       .  S
C229        N230   1.362       .  A
C229        N234   1.359   1_556  A
C229        C674   1.487       .  S
N230        C231   1.363   1_556  A
C231        N232   1.362       .  A
C231        C265   1.475       .  S
N232        C233   1.360       .  A
C233        N234   1.358       .  A
C233        C786   1.493       .  S
C235        N236   1.360       .  A
C235        N240   1.362       .  A
C235        C562   1.493       .  S
N236        C237   1.357   1_455  A
C237        N238   1.357       .  A
C237        C264   1.461       .  S
N238        C239   1.357       .  A
C239        N240   1.359   1_655  A
C239        C409   1.491       .  S
Zr241       O242   2.441   1_554  S
Zr241       O243   2.458   1_565  S
Zr241       O244   2.466   1_565  S
Zr241       O247   2.455   1_554  S
Zr241       O249   2.387   1_565  S
Zr241       O250   2.393       .  S
Zr241       O251   2.415       .  S
Zr241       O252   2.410       .  S
O242        H298   0.990   1_565  S
O242        H306   0.991       .  S
O243        C263   1.287       .  A
O244        C265   1.289       .  A
O245       Zr255   2.411   1_656  S
O245        C264   1.280       .  A
O246       Zr254   2.431       .  S
O246        C265   1.284       .  A
O247        C264   1.287       .  A
O248       Zr256   2.391       .  S
O248        C263   1.276   1_455  A
O249       Zr254   2.393       .  S
O249       Zr256   2.383   1_655  S
O250       Zr255   2.396   1_655  S
O250       Zr256   2.378   1_665  S
O250        H285   0.967   1_655  S
O251       Zr254   2.400   1_565  S
O251       Zr271   2.379       .  S
O251        H288   0.964       .  S
O252       Zr255   2.388   1_655  S
O252       Zr271   2.389       .  S
Zr253       O278   2.442       .  S
Zr253       O272   2.432       .  S
Zr253       O280   2.446   1_655  S
Zr253       O268   2.448       .  S
Zr253       O259   2.395   1_655  S
Zr253       O260   2.405       .  S
Zr253       O261   2.383       .  S
Zr253       O262   2.393       .  S
Zr254       O273   2.436   1_545  S
Zr254       O266   2.435       .  S
Zr254       O267   2.427       .  S
Zr254       O260   2.394   1_545  S
Zr254       O261   2.395   1_545  S
Zr255       O257   2.436       .  S
Zr255       O279   2.437       .  S
Zr255       O281   2.423       .  S
Zr255       O259   2.385       .  S
Zr255       O262   2.387   1_455  S
Zr256       O282   2.437       .  S
Zr256       O283   2.435       .  S
Zr256       O258   2.437   1_455  S
Zr256       O259   2.375   1_545  S
Zr256       O260   2.385   1_445  S
O257        H294   0.990       .  S
O258        H289   0.990   1_655  S
O258        H303   0.990       .  S
O260        H286   0.964   1_565  S
O261       Zr271   2.383       .  S
O262       Zr271   2.378       .  S
O262        H287   0.966       .  S
O266        H302   0.990       .  S
O267        C269   1.283   1_545  A
O268        C269   1.285       .  A
O270       Zr271   2.440       .  S
O270        H299   0.990       .  S
Zr271       O274   2.438       .  S
Zr271       O275   2.442       .  S
Zr271       O276   2.402       .  S
O272        C277   1.282       .  A
O273        H290   0.990   1_565  S
O273        H305   0.990       .  S
O274        H291   0.990       .  S
O275        H295   0.990       .  S
O275        H304   0.990       .  S
O276        C277   1.278       .  A
O278        H297   0.990       .  S
O278        H301   0.991       .  S
O279        H293   0.990       .  S
O279        H300   0.990       .  S
O280        C284   1.285       .  A
O281        C284   1.283       .  A
O282        H292   0.990       .  S
O283        H296   0.990   1_545  S
C307        N308   1.360       .  A
C307        N312   1.353       .  A
C307        C689   1.488       .  S
N308        C309   1.362       .  A
C309        N310   1.362       .  A
C309        C366   1.462       .  S
N310        C311   1.358       .  A
C311        N312   1.350       .  A
C311        C969   1.484       .  S
C313        N314   1.358       .  A
C313        N318   1.355       .  A
C313        C730   1.465       .  S
N314        C315   1.358       .  A
C315        N316   1.359       .  A
C315        C371   1.461       .  S
N316        C317   1.357       .  A
C317        N318   1.356       .  A
C317       C1038   1.489       .  S
C319        N320   1.361       .  A
C319        N324   1.358       .  A
C319        C422   1.495       .  S
N320        C321   1.361       .  A
C321        N322   1.357       .  A
C321        C386   1.469       .  S
N322        C323   1.358       .  A
C323        N324   1.359       .  A
C323        C605   1.489       .  S
C325        N326   1.355       .  A
C325        N330   1.357       .  A
C325        C465   1.482       .  S
N326        C327   1.358       .  A
C327        N328   1.364       .  A
C327        C521   1.494       .  S
N328        C329   1.362       .  A
C329        N330   1.360       .  A
C329        C367   1.473       .  S
C331        N332   1.360       .  A
C331        N336   1.362       .  A
C331        C941   1.491       .  S
N332        C333   1.358       .  A
C333        N334   1.356       .  A
C333        C493   1.490       .  S
N334        C335   1.357       .  A
C335        N336   1.358       .  A
C335        C379   1.469       .  S
C337        N338   1.357       .  A
C337        N342   1.364       .  A
C337        C842   1.497       .  S
N338        C339   1.353       .  A
C339        N340   1.358       .  A
C339        C437   1.479       .  S
N340        C341   1.359       .  A
C341        N342   1.366       .  A
C341        C365   1.478       .  S
Zr343       O344   2.438       .  S
Zr343       O345   2.429       .  S
Zr343       O346   2.455       .  S
Zr343       O349   2.440       .  S
Zr343       O351   2.381   1_455  S
Zr343       O352   2.390   1_455  S
Zr343       O353   2.405   1_455  S
Zr343       O354   2.406   1_455  S
O344        H400   0.991       .  S
O344        H408   0.990       .  S
O345        C365   1.282       .  A
O346        C367   1.287       .  A
O347       Zr357   2.416   1_455  S
O347        C366   1.281       .  A
O348       Zr356   2.421       .  S
O348        C367   1.283   1_655  A
O349        C366   1.285       .  A
O350       Zr358   2.444       .  S
O350        C365   1.286   1_655  A
O351       Zr356   2.392       .  S
O351       Zr358   2.376       .  S
O352       Zr357   2.392       .  S
O352       Zr358   2.374       .  S
O352        H387   0.966       .  S
O353       Zr356   2.394       .  S
O353       Zr373   2.390       .  S
O353        H390   0.965       .  S
O354       Zr357   2.391       .  S
O354       Zr373   2.390       .  S
Zr355       O380   2.442       .  S
Zr355       O374   2.440       .  S
Zr355       O382   2.439       .  S
Zr355       O370   2.441       .  S
Zr355       O361   2.410       .  S
Zr355       O362   2.410       .  S
Zr355       O363   2.382       .  S
Zr355       O364   2.382       .  S
Zr356       O375   2.437       .  S
Zr356       O368   2.436       .  S
Zr356       O369   2.414       .  S
Zr356       O362   2.394       .  S
Zr356       O363   2.390       .  S
Zr357       O359   2.436       .  S
Zr357       O381   2.437       .  S
Zr357       O383   2.425       .  S
Zr357       O361   2.391       .  S
Zr357       O364   2.387       .  S
Zr358       O384   2.437       .  S
Zr358       O385   2.437       .  S
Zr358       O360   2.437       .  S
Zr358       O361   2.407       .  S
Zr358       O362   2.395       .  S
O359        H396   0.990       .  S
O360        H391   0.990       .  S
O360        H405   0.990       .  S
O362        H388   0.967       .  S
O363       Zr373   2.381       .  S
O364       Zr373   2.376       .  S
O364        H389   0.966       .  S
O368        H404   0.990       .  S
O369        C371   1.280       .  A
O370        C371   1.285       .  A
O372       Zr373   2.439   1_455  S
O372        H401   0.990       .  S
Zr373       O376   2.438       .  S
Zr373       O377   2.440       .  S
Zr373       O378   2.418       .  S
O374        C379   1.285       .  A
O375        H392   0.990       .  S
O375        H407   0.990       .  S
O376        H393   0.990       .  S
O377        H397   0.990       .  S
O377        H406   0.990       .  S
O378        C379   1.281       .  A
O380        H399   0.991       .  S
O380        H403   0.990       .  S
O381        H395   0.990       .  S
O381        H402   0.990       .  S
O382        C386   1.285       .  A
O383        C386   1.282       .  A
O384        H394   0.990       .  S
O385        H398   0.990       .  S
C409        C410   1.415       .  A
C409        C414   1.407       .  A
C410        C411   1.405       .  A
C410        N415   1.432       .  S
C411        C412   1.400       .  A
C411        H416   1.084       .  S
C412        C417   1.481       .  S
C412        C413   1.409       .  A
C413        C414   1.407       .  A
C413        N418   1.438       .  S
C414        H419   1.083       .  S
N415        H435   1.046       .  S
N415        H436   1.045       .  S
C417        C420   1.397       .  A
C417        C424   1.408       .  A
N418        H433   1.045       .  S
N418        H434   1.045       .  S
C420        C421   1.403       .  A
C420        H425   1.084       .  S
C421        C422   1.418       .  A
C421        N426   1.430       .  S
C422        C423   1.409       .  A
C423        C424   1.408       .  A
C423        H427   1.083       .  S
C424        N428   1.437       .  S
N426        H429   1.046       .  S
N426        H430   1.045       .  S
N428        H431   1.046       .  S
N428        H432   1.046       .  S
C437        C438   1.413       .  A
C437        C442   1.404       .  A
C438        C439   1.400       .  A
C438        N443   1.433       .  S
C439        C440   1.400   1_455  A
C439        H444   1.084       .  S
C440        C445   1.478       .  S
C440        C441   1.409       .  A
C441        C442   1.405   1_655  A
C441        N446   1.437       .  S
C442        H447   1.084       .  S
N443        H463   1.046       .  S
N443        H464   1.046       .  S
C445        C448   1.401       .  A
C445        C452   1.409       .  A
N446        H461   1.045       .  S
N446        H462   1.046       .  S
C448        C449   1.401       .  A
C448        H453   1.084       .  S
C449        C450   1.411       .  A
C449        N454   1.438       .  S
C450        C451   1.406       .  A
C451        C452   1.405       .  A
C451        H455   1.084       .  S
C452        N456   1.438   1_655  S
N454        H457   1.046       .  S
N454        H458   1.045       .  S
N456        H459   1.046       .  S
N456        H460   1.045       .  S
C465        C466   1.411       .  A
C465        C470   1.406   1_455  A
C466        C467   1.403       .  A
C466        N471   1.432       .  S
C467        C468   1.401   1_455  A
C467        H472   1.084       .  S
C468        C473   1.482       .  S
C468        C469   1.409       .  A
C469        C470   1.407       .  A
C469        N474   1.437       .  S
C470        H475   1.084       .  S
N471        H491   1.045       .  S
N471        H492   1.046       .  S
C473        C476   1.401       .  A
C473        C480   1.408       .  A
N474        H489   1.046       .  S
N474        H490   1.046       .  S
C476        C477   1.403       .  A
C476        H481   1.084       .  S
C477        C478   1.414       .  A
C477        N482   1.432       .  S
C478        C479   1.407       .  A
C479        C480   1.407       .  A
C479        H483   1.083       .  S
C480        N484   1.437       .  S
N482        H485   1.046       .  S
N482        H486   1.046       .  S
N484        H487   1.046       .  S
N484        H488   1.046       .  S
C493        C494   1.416       .  A
C493        C498   1.408       .  A
C494        C495   1.404       .  A
C494        N499   1.432       .  S
C495        C496   1.400       .  A
C495        H500   1.084       .  S
C496        C501   1.480       .  S
C496        C497   1.408       .  A
C497        C498   1.404       .  A
C497        N502   1.438       .  S
C498        H503   1.083       .  S
N499        H519   1.046       .  S
N499        H520   1.046       .  S
C501        C504   1.400       .  A
C501        C508   1.408       .  A
N502        H517   1.046       .  S
N502        H518   1.046       .  S
C504        C505   1.403       .  A
C504        H509   1.084       .  S
C505        C506   1.417       .  A
C505        N510   1.438       .  S
C506        C507   1.407       .  A
C507        C508   1.407       .  A
C507        H511   1.083       .  S
C508        N512   1.437       .  S
N510        H513   1.046       .  S
N510        H514   1.046   1_556  S
N512        H515   1.046       .  S
N512        H516   1.046       .  S
C521        C522   1.417       .  A
C521        C526   1.409       .  A
C522        C523   1.402       .  A
C522        N527   1.432       .  S
C523        C524   1.398       .  A
C523        H528   1.084       .  S
C524        C529   1.482       .  S
C524        C525   1.410       .  A
C525        C526   1.410       .  A
C525        N530   1.439       .  S
C526        H531   1.083       .  S
N527        H547   1.046       .  S
N527        H548   1.046       .  S
C529        C532   1.402       .  A
C529        C536   1.408       .  A
N530        H545   1.046       .  S
N530        H546   1.044       .  S
C532        C533   1.413       .  A
C532        H537   1.084       .  S
C533        C534   1.420       .  A
C533        N538   1.437       .  S
C534        C535   1.409       .  A
C535        C536   1.401       .  A
C535        H539   1.083       .  S
C536        N540   1.440       .  S
N538        H541   1.046       .  S
N538        H542   1.045       .  S
N540        H543   1.046       .  S
N540        H544   1.043       .  S
C549        C550   1.418   1_545  A
C549        C554   1.407       .  A
C550        C551   1.404       .  A
C550        N555   1.438       .  S
C551        C552   1.401       .  A
C551        H556   1.084       .  S
C552        C557   1.484       .  S
C552        C553   1.409   1_565  A
C553        C554   1.406       .  A
C553        N558   1.438       .  S
C554        H559   1.083       .  S
N555        H575   1.046       .  S
N555        H576   1.046       .  S
C557        C560   1.401       .  A
C557        C564   1.410       .  A
N558        H573   1.046       .  S
N558        H574   1.046       .  S
C560        C561   1.405       .  A
C560        H565   1.084   1_565  S
C561        C562   1.417       .  A
C561        N566   1.432       .  S
C562        C563   1.408       .  A
C563        C564   1.403       .  A
C563        H567   1.083       .  S
C564        N568   1.438       .  S
N566        H569   1.046   1_565  S
N566        H570   1.046       .  S
N568        H571   1.046       .  S
N568        H572   1.045       .  S
C577        C578   1.419   1_545  A
C577        C582   1.410       .  A
C578        C579   1.408       .  A
C578        N583   1.437       .  S
C579        C580   1.401       .  A
C579        H584   1.084       .  S
C580        C585   1.485       .  S
C580        C581   1.409       .  A
C581        C582   1.404   1_565  A
C581        N586   1.439   1_565  S
C582        H587   1.083       .  S
N583        H603   1.046       .  S
N583        H604   1.046       .  S
C585        C588   1.402       .  A
C585        C592   1.410       .  A
N586        H601   1.046       .  S
N586        H602   1.046   1_545  S
C588        C589   1.403       .  A
C588        H593   1.084       .  S
C589        C590   1.415       .  A
C589        N594   1.432       .  S
C590        C591   1.409       .  A
C591        C592   1.405       .  A
C591        H595   1.083       .  S
C592        N596   1.438       .  S
N594        H597   1.046       .  S
N594        H598   1.046       .  S
N596        H599   1.046       .  S
N596        H600   1.046       .  S
C605        C606   1.414       .  A
C605        C610   1.408       .  A
C606        C607   1.402       .  A
C606        N611   1.436       .  S
C607        C608   1.403       .  A
C607        H612   1.083       .  S
C608        C613   1.489       .  S
C608        C609   1.411       .  A
C609        C610   1.406       .  A
C609        N614   1.438       .  S
C610        H615   1.083       .  S
N611        H631   1.045       .  S
N611        H632   1.046       .  S
C613        C616   1.403       .  A
C613        C620   1.411       .  A
N614        H629   1.046       .  S
N614        H630   1.045       .  S
C616        C617   1.399       .  A
C616        H621   1.083       .  S
C617        C618   1.414       .  A
C617        N622   1.432       .  S
C618        C619   1.410       .  A
C619        C620   1.407       .  A
C619        H623   1.083       .  S
C620        N624   1.438       .  S
N622        H625   1.046       .  S
N622        H626   1.046       .  S
N624        H627   1.046       .  S
N624        H628   1.045       .  S
C633        C634   1.418       .  A
C633        C638   1.410       .  A
C634        C635   1.405       .  A
C634        N639   1.432       .  S
C635        C636   1.401       .  A
C635        H640   1.084       .  S
C636        C641   1.483       .  S
C636        C637   1.407       .  A
C637        C638   1.406       .  A
C637        N642   1.438       .  S
C638        H643   1.082       .  S
N639        H659   1.046       .  S
N639        H660   1.046       .  S
C641        C644   1.402       .  A
C641        C648   1.409       .  A
N642        H657   1.046       .  S
N642        H658   1.046       .  S
C644        C645   1.405       .  A
C644        H649   1.084       .  S
C645        C646   1.413       .  A
C645        N650   1.437       .  S
C646        C647   1.405       .  A
C647        C648   1.407       .  A
C647        H651   1.084       .  S
C648        N652   1.437       .  S
N650        H653   1.046       .  S
N650        H654   1.046       .  S
N652        H655   1.046       .  S
N652        H656   1.046       .  S
C661        C662   1.419       .  A
C661        C666   1.408       .  A
C662        C663   1.408       .  A
C662        N667   1.433       .  S
C663        C664   1.401       .  A
C663        H668   1.084   1_565  S
C664        C669   1.484       .  S
C664        C665   1.407       .  A
C665        C666   1.405       .  A
C665        N670   1.437       .  S
C666        H671   1.083       .  S
N667        H687   1.046       .  S
N667        H688   1.046       .  S
C669        C672   1.399       .  A
C669        C676   1.410       .  A
N670        H685   1.046       .  S
N670        H686   1.046       .  S
C672        C673   1.401   1_565  A
C672        H677   1.084       .  S
C673        C674   1.413       .  A
C673        N678   1.433       .  S
C674        C675   1.407       .  A
C675        C676   1.413   1_545  A
C675        H679   1.083       .  S
C676        N680   1.437       .  S
N678        H681   1.046       .  S
N678        H682   1.046   1_546  S
N680        H683   1.046   1_565  S
N680        H684   1.046       .  S
C689        C690   1.417       .  A
C689        C694   1.409       .  A
C690        C691   1.410       .  A
C690        N695   1.437       .  S
C691        C692   1.401       .  A
C691        H696   1.084       .  S
C692        C697   1.473       .  S
C692        C693   1.403       .  A
C693        C694   1.396       .  A
C693        N698   1.439       .  S
C694        H699   1.083       .  S
N695        H715   1.045       .  S
N695        H716   1.046       .  S
C697        C700   1.399       .  A
C697        C704   1.404       .  A
N698        H713   1.046       .  S
N698        H714   1.046       .  S
C700        C701   1.400       .  A
C700        H705   1.084       .  S
C701        C702   1.415       .  A
C701        N706   1.433       .  S
C702        C703   1.411       .  A
C703        C704   1.404       .  A
C703        H707   1.083       .  S
C704        N708   1.438       .  S
N706        H709   1.046       .  S
N706        H710   1.046       .  S
N708        H711   1.046       .  S
N708        H712   1.046       .  S
C717        C718   1.421       .  A
C717        C722   1.408       .  A
C718        C719   1.403       .  A
C718        N723   1.436       .  S
C719        C720   1.394       .  A
C719        H724   1.084       .  S
C720        C725   1.470       .  S
C720        C721   1.407       .  A
C721        C722   1.402       .  A
C721        N726   1.439       .  S
C722        H727   1.083       .  S
N723        H743   1.045       .  S
N723        H744   1.046       .  S
C725        C728   1.401       .  A
C725        C732   1.408       .  A
N726        H741   1.046       .  S
N726        H742   1.045       .  S
C728        C729   1.400       .  A
C728        H733   1.084       .  S
C729        C730   1.406       .  A
C729        N734   1.432       .  S
C730        C731   1.403       .  A
C731        C732   1.403       .  A
C731        H735   1.084       .  S
C732        N736   1.438       .  S
N734        H737   1.046       .  S
N734        H738   1.045       .  S
N736        H739   1.046       .  S
N736        H740   1.045       .  S
C745        C746   1.423       .  A
C745        C750   1.413       .  A
C746        C747   1.402       .  A
C746        N751   1.436       .  S
C747        C748   1.395       .  A
C747        H752   1.084       .  S
C748        C753   1.485       .  S
C748        C749   1.409       .  A
C749        C750   1.414       .  A
C749        N754   1.438       .  S
C750        H755   1.083       .  S
N751        H771   1.045       .  S
N751        H772   1.046       .  S
C753        C756   1.404       .  A
C753        C760   1.406       .  A
N754        H769   1.046       .  S
N754        H770   1.044       .  S
C756        C757   1.414       .  A
C756        H761   1.084       .  S
C757        C758   1.418       .  A
C757        N762   1.437       .  S
C758        C759   1.410       .  A
C759        C760   1.403       .  A
C759        H763   1.083       .  S
C760        N764   1.439       .  S
N762        H765   1.046       .  S
N762        H766   1.046       .  S
N764        H767   1.046       .  S
N764        H768   1.045       .  S
C773        C774   1.417       .  A
C773        C778   1.408       .  A
C774        C775   1.405       .  A
C774        N779   1.431       .  S
C775        C776   1.400       .  A
C775        H780   1.084       .  S
C776        C781   1.487       .  S
C776        C777   1.409       .  A
C777        C778   1.409       .  A
C777        N782   1.437       .  S
C778        H783   1.083       .  S
N779        H799   1.046       .  S
N779        H800   1.046       .  S
C781        C784   1.401       .  A
C781        C788   1.409       .  A
N782        H797   1.046       .  S
N782        H798   1.046       .  S
C784        C785   1.406       .  A
C784        H789   1.084       .  S
C785        C786   1.417       .  A
C785        N790   1.438       .  S
C786        C787   1.409       .  A
C787        C788   1.410       .  A
C787        H791   1.083       .  S
C788        N792   1.437       .  S
N790        H793   1.046   1_554  S
N790        H794   1.046       .  S
N792        H795   1.046       .  S
N792        H796   1.046       .  S
C801        C802   1.424       .  A
C801        C806   1.409       .  A
C802        C803   1.407       .  A
C802        N807   1.438       .  S
C803        C804   1.400       .  A
C803        H808   1.084       .  S
C804        C809   1.487       .  S
C804        C805   1.409       .  A
C805        C806   1.407       .  A
C805        N810   1.438       .  S
C806        H811   1.083       .  S
N807        H827   1.046       .  S
N807        H828   1.046       .  S
C809        C812   1.401       .  A
C809        C816   1.410       .  A
N810        H825   1.046       .  S
N810        H826   1.046       .  S
C812        C813   1.405       .  A
C812        H817   1.084       .  S
C813        C814   1.419       .  A
C813        N818   1.433       .  S
C814        C815   1.408       .  A
C815        C816   1.407       .  A
C815        H819   1.083       .  S
C816        N820   1.438       .  S
N818        H821   1.046       .  S
N818        H822   1.046       .  S
N820        H823   1.046       .  S
N820        H824   1.046       .  S
C829        C830   1.416       .  A
C829        C834   1.408       .  A
C830        C831   1.408       .  A
C830        N835   1.437       .  S
C831        C832   1.403       .  A
C831        H836   1.084       .  S
C832        C837   1.488       .  S
C832        C833   1.407       .  A
C833        C834   1.404       .  A
C833        N838   1.432       .  S
C834        H839   1.083       .  S
N835        H855   1.046       .  S
N835        H856   1.046       .  S
C837        C840   1.404       .  A
C837        C844   1.407       .  A
N838        H853   1.046       .  S
N838        H854   1.046       .  S
C840        C841   1.410       .  A
C840        H845   1.084       .  S
C841        C842   1.415       .  A
C841        N846   1.432       .  S
C842        C843   1.410       .  A
C843        C844   1.400       .  A
C843        H847   1.083       .  S
C844        N848   1.433       .  S
N846        H849   1.045       .  S
N846        H850   1.046       .  S
N848        H851   1.046       .  S
N848        H852   1.046       .  S
C857        C858   1.417       .  A
C857        C862   1.411       .  A
C858        C859   1.400       .  A
C858        N863   1.432       .  S
C859        C860   1.400       .  A
C859        H864   1.084       .  S
C860        C865   1.489       .  S
C860        C861   1.410       .  A
C861        C862   1.411       .  A
C861        N866   1.437       .  S
C862        H867   1.083       .  S
N863        H883   1.046       .  S
N863        H884   1.046       .  S
C865        C868   1.402       .  A
C865        C872   1.410       .  A
N866        H881   1.046       .  S
N866        H882   1.046       .  S
C868        C869   1.404       .  A
C868        H873   1.084       .  S
C869        C870   1.417       .  A
C869        N874   1.432       .  S
C870        C871   1.409       .  A
C871        C872   1.407       .  A
C871        H875   1.083       .  S
C872        N876   1.438       .  S
N874        H877   1.046       .  S
N874        H878   1.046       .  S
N876        H879   1.046       .  S
N876        H880   1.045       .  S
C885        C886   1.411       .  A
C885        C890   1.406       .  A
C886        C887   1.403       .  A
C886        N891   1.432       .  S
C887        C888   1.403       .  A
C887        H892   1.084       .  S
C888        C893   1.481       .  S
C888        C889   1.409       .  A
C889        C890   1.405       .  A
C889        N894   1.438       .  S
C890        H895   1.084       .  S
N891        H911   1.046   1_554  S
N891        H912   1.046       .  S
C893        C896   1.401       .  A
C893        C900   1.409       .  A
N894        H909   1.046       .  S
N894        H910   1.046       .  S
C896        C897   1.404       .  A
C896        H901   1.084       .  S
C897        C898   1.415       .  A
C897        N902   1.433       .  S
C898        C899   1.407       .  A
C899        C900   1.403       .  A
C899        H903   1.083       .  S
C900        N904   1.438       .  S
N902        H905   1.046       .  S
N902        H906   1.046       .  S
N904        H907   1.046       .  S
N904        H908   1.046       .  S
C913        C914   1.416       .  A
C913        C918   1.405       .  A
C914        C915   1.404       .  A
C914        N919   1.438       .  S
C915        C916   1.401       .  A
C915        H920   1.084       .  S
C916        C921   1.479       .  S
C916        C917   1.408       .  A
C917        C918   1.403       .  A
C917        N922   1.438       .  S
C918        H923   1.084       .  S
N919        H939   1.046       .  S
N919        H940   1.046       .  S
C921        C924   1.400       .  A
C921        C928   1.409       .  A
N922        H937   1.046       .  S
N922        H938   1.046       .  S
C924        C925   1.400       .  A
C924        H929   1.084       .  S
C925        C926   1.414       .  A
C925        N930   1.433       .  S
C926        C927   1.406       .  A
C927        C928   1.404       .  A
C927        H931   1.083       .  S
C928        N932   1.437       .  S
N930        H933   1.046       .  S
N930        H934   1.046       .  S
N932        H935   1.046       .  S
N932        H936   1.045       .  S
C941        C942   1.415       .  A
C941        C946   1.407       .  A
C942        C943   1.402       .  A
C942        N947   1.433       .  S
C943        C944   1.403       .  A
C943        H948   1.084       .  S
C944        C949   1.489       .  S
C944        C945   1.412       .  A
C945        C946   1.406       .  A
C945        N950   1.438       .  S
C946        H951   1.083       .  S
N947        H967   1.046       .  S
N947        H968   1.046       .  S
C949        C952   1.402       .  A
C949        C956   1.412       .  A
N950        H965   1.046       .  S
N950        H966   1.045       .  S
C952        C953   1.397       .  A
C952        H957   1.084       .  S
C953        C954   1.414       .  A
C953        N958   1.433       .  S
C954        C955   1.409       .  A
C955        C956   1.409       .  A
C955        H959   1.083       .  S
C956        N960   1.437       .  S
N958        H961   1.045       .  S
N958        H962   1.046       .  S
N960        H963   1.046       .  S
N960        H964   1.045       .  S
C969        C970   1.418       .  A
C969        C974   1.406       .  A
C970        C971   1.401       .  A
C970        N975   1.438       .  S
C971        C972   1.396       .  A
C971        H976   1.084       .  S
C972        C977   1.471       .  S
C972        C973   1.408       .  A
C973        C974   1.405       .  A
C973        N978   1.438       .  S
C974        H979   1.083       .  S
N975        H995   1.046       .  S
N975        H996   1.045       .  S
C977        C980   1.400       .  A
C977        C984   1.408       .  A
N978        H993   1.045       .  S
N978        H994   1.045       .  S
C980        C981   1.408       .  A
C980        H985   1.083       .  S
C981        C982   1.413       .  A
C981        N986   1.437       .  S
C982        C983   1.403       .  A
C983        C984   1.397       .  A
C983        H987   1.084       .  S
C984        N988   1.439       .  S
N986        H989   1.046       .  S
N986        H990   1.046       .  S
N988        H991   1.046       .  S
N988        H992   1.045       .  S
C997        C998   1.411       .  A
C997       C1002   1.403       .  A
C998        C999   1.398       .  A
C998       N1003   1.437       .  S
C999       C1000   1.402       .  A
C999       H1004   1.083       .  S
C1000      C1005   1.489       .  S
C1000      C1001   1.415       .  A
C1001      C1002   1.411       .  A
C1001      N1006   1.437       .  S
C1002      H1007   1.083       .  S
N1003      H1023   1.045       .  S
N1003      H1024   1.046       .  S
C1005      C1008   1.402       .  A
C1005      C1012   1.413       .  A
N1006      H1021   1.045       .  S
N1006      H1022   1.046       .  S
C1008      C1009   1.398       .  A
C1008      H1013   1.083       .  S
C1009      C1010   1.415       .  A
C1009      N1014   1.433       .  S
C1010      C1011   1.408       .  A
C1011      C1012   1.406       .  A
C1011      H1015   1.083       .  S
C1012      N1016   1.438       .  S
N1014      H1017   1.046       .  S
N1014      H1018   1.046       .  S
N1016      H1019   1.046       .  S
N1016      H1020   1.045       .  S
C1025      C1026   1.418       .  A
C1025      C1030   1.405       .  A
C1026      C1027   1.410       .  A
C1026      N1031   1.438       .  S
C1027      C1028   1.405       .  A
C1027      H1032   1.084       .  S
C1028      C1033   1.484       .  S
C1028      C1029   1.411       .  A
C1029      C1030   1.395       .  A
C1029      N1034   1.440       .  S
C1030      H1035   1.083       .  S
N1031      H1051   1.046       .  S
N1031      H1052   1.046       .  S
C1033      C1036   1.404       .  A
C1033      C1040   1.410       .  A
N1034      H1049   1.046       .  S
N1034      H1050   1.046       .  S
C1036      C1037   1.406       .  A
C1036      H1041   1.084       .  S
C1037      C1038   1.416       .  A
C1037      N1042   1.437       .  S
C1038      C1039   1.407       .  A
C1039      C1040   1.401       .  A
C1039      H1043   1.083       .  S
C1040      N1044   1.439       .  S
N1042      H1045   1.046       .  S
N1042      H1046   1.046       .  S
N1044      H1047   1.046       .  S
N1044      H1048   1.046       .  S
C1053      C1054   1.410       .  A
C1053      C1058   1.402       .  A
C1054      C1055   1.403       .  A
C1054      N1059   1.432       .  S
C1055      C1056   1.401       .  A
C1055      H1060   1.084       .  S
C1056      C1061   1.472       .  S
C1056      C1057   1.410       .  A
C1057      C1058   1.399       .  A
C1057      N1062   1.439       .  S
C1058      H1063   1.084       .  S
N1059      H1079   1.045       .  S
N1059      H1080   1.046       .  S
C1061      C1064   1.398       .  A
C1061      C1068   1.408       .  A
N1062      H1077   1.046       .  S
N1062      H1078   1.046       .  S
C1064      C1065   1.399       .  A
C1064      H1069   1.084       .  S
C1065      C1066   1.417       .  A
C1065      N1070   1.432       .  S
C1066      C1067   1.408       .  A
C1067      C1068   1.402       .  A
C1067      H1071   1.083       .  S
C1068      N1072   1.439       .  S
N1070      H1073   1.045       .  S
N1070      H1074   1.046       .  S
N1072      H1075   1.046       .  S
N1072      H1076   1.046       .  S
