geometry optimzed in LAMMPS
_audit_creation_date              2020-11-30 
_audit_creation_method            'lammps2cif' 
_symmetry_space_group_name_H-M    'P1' 
_symmetry_Int_Tables_number       1 
_symmetry_cell_setting            triclinic 
loop_ 
_symmetry_equiv_pos_as_xyz 
  x,y,z 
_cell_length_a                    43.14431948 
_cell_length_b                    35.864124010280484 
_cell_length_c                    31.81027799280796 
_cell_angle_alpha                 89.98959936215526 
_cell_angle_beta                  90.200384711247 
_cell_angle_gamma                 90.10594347888127 
loop_ 
_atom_site_label 
_atom_site_type_symbol 
_atom_site_fract_x 
_atom_site_fract_y 
_atom_site_fract_z 
_atom_site_charge 
C1          C  0.99968772  0.70067811  0.04965029     0.03000
C2          C  0.47056085  0.68704554  0.03711123    -0.13200
C3          C  0.46856166  0.65663339  0.00950096     0.00500
C4          C  0.49567187  0.64056135  0.99380613    -0.11700
C5          C  0.02483101  0.65407256  0.00593989     0.03000
C6          C  0.02673296  0.68433326  0.03366698    -0.11100
H7          H  0.44962530  0.69905898  0.04998165     0.08600
H8          H  0.49404771  0.61685473  0.97275341     0.06100
H9          H  0.04925237  0.69495303  0.04315694     0.06000
C10         C  0.99743433  0.19023284  0.01643341     0.03000
C11         C  0.02547403  0.20466823  0.00086795    -0.13200
C12         C  0.02521564  0.23441728  0.97224899     0.00500
C13         C  0.99686035  0.24916849  0.95864550    -0.11700
C14         C  0.46883403  0.23444133  0.97336154     0.03000
C15         C  0.46920928  0.20455904  0.00166928    -0.11100
H16         H  0.04737835  0.19379975  0.01221721     0.08600
H17         H  0.99665604  0.27286545  0.93745795     0.06100
H18         H  0.44753493  0.19374884  0.01381012     0.06000
O19         O  0.26916122  0.48806079  0.76582244    -0.85500
O20         O  0.29488697  0.50403767  0.84272940    -0.82500
C21         C  0.29731911  0.50629970  0.88217863     0.98000
O22         O  0.28383344  0.48283723  0.90566963    -0.82600
O23         O  0.22141954  0.49644940  0.89950038    -0.85200
C24         C  0.19454699  0.49828676  0.88419549     1.02500
O25         O  0.18707664  0.47851809  0.85290633    -0.78000
O26         O  0.22313137  0.50467959  0.78738566    -0.78200
C27         C  0.24700997  0.51106425  0.76571306     1.02500
O28         O  0.27666522  0.40987997  0.78283844    -0.85500
O29         O  0.30777535  0.42706834  0.85583793    -0.82500
C30         C  0.29885797  0.40375200  0.88293267     0.98000
O31         O  0.27136456  0.40433032  0.89605468    -0.82600
O32         O  0.20878605  0.41772164  0.89591303    -0.85200
C33         C  0.19631555  0.39762143  0.86773728     1.02500
O34         O  0.20144149  0.40395282  0.82935824    -0.76800
O35         O  0.23191594  0.42923199  0.75888864    -0.78100
C36         C  0.25452945  0.40687307  0.75710015     1.02400
Cr37       Cr  0.28429733  0.45693239  0.81375218     1.93700
Cr38       Cr  0.24647067  0.45057836  0.89497428     1.93200
Cr39       Cr  0.21357546  0.45416360  0.80931894     1.39100
O40         O  0.24811088  0.45378037  0.83951834    -1.23200
C41         C  0.25209900  0.73069998  0.56855634     0.03000
C42         C  0.28037692  0.74475904  0.55349310    -0.13200
C43         C  0.28073655  0.77497185  0.52557097     0.00500
C44         C  0.25269735  0.79059128  0.51204508    -0.11700
C45         C  0.22443080  0.77643588  0.52642122     0.03000
C46         C  0.22409043  0.74627193  0.55438766    -0.11100
H47         H  0.30203906  0.73259217  0.56397954     0.08600
H48         H  0.25286983  0.81389664  0.49031450     0.06100
H49         H  0.20218396  0.73551997  0.56575770     0.06000
C50         C  0.25243401  0.22421932  0.51614861     0.03000
C51         C  0.28047674  0.21110154  0.49951700    -0.13200
C52         C  0.28050637  0.18557760  0.46623590     0.00500
C53         C  0.25232514  0.17273818  0.44979347    -0.11700
C54         C  0.22416953  0.18562896  0.46589218     0.03000
C55         C  0.22421196  0.21193381  0.49853924    -0.11100
H56         H  0.30232055  0.21990847  0.51326589     0.08600
H57         H  0.25228052  0.15160608  0.42541311     0.06100
H58         H  0.20239861  0.22172551  0.51115549     0.06000
O59         O  0.48253045  0.92097525  0.26973014    -0.85500
O60         O  0.45698495  0.91142386  0.34767835    -0.82500
C61         C  0.45368383  0.91306690  0.38695160     0.98000
O62         O  0.46566682  0.93972775  0.40744936    -0.82600
O63         O  0.02851852  0.92656093  0.40386301    -0.85200
C64         C  0.05557702  0.92416943  0.38934646     1.02500
O65         O  0.06310389  0.94206259  0.35662997    -0.78000
O66         O  0.03015923  0.91045285  0.29130305    -0.78200
C67         C  0.50666323  0.90098409  0.26992521     1.02500
O68         O  0.47219258  0.00000456  0.27720139    -0.85500
O69         O  0.44175513  0.98927899  0.35118545    -0.82500
C70         C  0.45081816  0.01662237  0.37320676     0.98000
O71         O  0.47784193  0.01684335  0.38817504    -0.82600
O72         O  0.04037287  0.00452040  0.39288712    -0.85200
C73         C  0.05178421  0.02374875  0.36333962     1.02500
O74         O  0.04655977  0.01476307  0.32570869    -0.78000
O75         O  0.01853089  0.98302183  0.25686084    -0.78100
C76         C  0.99487402  0.00343800  0.25250001     1.02400
Cr77       Cr  0.46610181  0.95589905  0.31335131     1.93700
Cr78       Cr  0.50295436  0.97121267  0.39388989     1.93200
Cr79       Cr  0.03690653  0.96256410  0.30988883     1.39100
O80         O  0.00203461  0.96304082  0.33900773    -1.23200
C81         C  0.41449392  0.10580589  0.41617672    -0.11500
C82         C  0.38303890  0.09835963  0.40908537     0.15000
C83         C  0.37426956  0.06577345  0.38732791     0.01900
C84         C  0.39700756  0.04062867  0.37466007    -0.15900
C85         C  0.42861174  0.04692619  0.38328246    -0.10700
C86         C  0.43740769  0.08094165  0.40284124     0.08600
C87         C  0.35970511  0.12473983  0.42495431     0.09700
S88         S  0.33445383  0.05422594  0.37533639    -0.25000
H89         H  0.38963351  0.01524650  0.35905871     0.19900
S90         S  0.47710577  0.09514824  0.41080192    -0.30700
H91         H  0.42121255  0.13137639  0.43196812     0.10300
C92         C  0.35155354  0.12518244  0.46778672     0.03500
C93         C  0.32667611  0.14725649  0.48088047    -0.13000
C94         C  0.30973619  0.16863500  0.45191457    -0.08700
C95         C  0.31903505  0.16964041  0.40938869     0.06900
C96         C  0.34382862  0.14750960  0.39631800    -0.13800
S97         S  0.37126447  0.09548807  0.50513934    -0.30700
H98         H  0.31929459  0.14638265  0.51337427     0.11200
S99         S  0.29991177  0.19798079  0.37032478    -0.27800
H100        H  0.35034436  0.14729136  0.36344512     0.08400
H101        H  0.48676007  0.08428733  0.37042739     0.26800
H102        H  0.35475669  0.10701775  0.54089701     0.21600
H103        H  0.28945129  0.22548404  0.39837377     0.26900
H104        H  0.32142504  0.07034149  0.41142759     0.15800
C105        C  0.14811083  0.16620110  0.40904755    -0.11500
C106        C  0.14294002  0.12898930  0.42083494     0.15000
C107        C  0.16402353  0.11129760  0.44842879     0.01900
C108        C  0.18957073  0.13109661  0.46366099    -0.15900
C109        C  0.19513806  0.16801087  0.45133136    -0.10700
C110        C  0.17412108  0.18584994  0.42380781     0.08600
C111        C  0.11607059  0.10848681  0.40329811     0.09700
S112        S  0.15994670  0.06337015  0.46498625    -0.25000
H113        H  0.20578184  0.11727020  0.48460025     0.19900
S114        S  0.17941689  0.23316022  0.40595021    -0.30700
H115        H  0.13203956  0.17978339  0.38774355     0.10300
C116        C  0.09081108  0.09839434  0.42873772     0.03500
C117        C  0.06929258  0.07216433  0.41387278    -0.13000
C118        C  0.07251340  0.05555415  0.37402234    -0.08700
C119        C  0.09679763  0.06795046  0.34746984     0.06900
C120        C  0.11799547  0.09454658  0.36226108    -0.13800
S121        S  0.08676135  0.11787920  0.48078717    -0.30700
H122        H  0.05039518  0.06363202  0.43402683     0.11200
S123        S  0.10397807  0.04874528  0.29611407    -0.27800
H124        H  0.13748676  0.10239424  0.34272147     0.08400
H125        H  0.21196637  0.23340713  0.40772070     0.26800
H126        H  0.05943268  0.09874434  0.49156576     0.21600
H127        H  0.10424244  0.01164113  0.31054442     0.26900
H128        H  0.14691436  0.04997161  0.42735462     0.15800
C129        C  0.41288473  0.85551259  0.47102429    -0.11500
C130        C  0.38765404  0.84141612  0.44807803     0.15000
C131        C  0.38579593  0.84842927  0.40444916     0.01900
C132        C  0.40881976  0.86976151  0.38503160    -0.15900
C133        C  0.43334347  0.88552923  0.40826209    -0.10700
C134        C  0.43586329  0.87702309  0.45162900     0.08600
C135        C  0.36245198  0.82231946  0.47111343     0.09700
S136        S  0.35382493  0.83294238  0.37208343    -0.25000
H137        H  0.40645845  0.87589085  0.35182417     0.19900
S138        S  0.46796911  0.89198540  0.48385998    -0.30700
H139        H  0.41453651  0.84991109  0.50442875     0.10300
C140        C  0.35569370  0.78413956  0.46545254     0.03500
C141        C  0.32947480  0.76875736  0.48499326    -0.13000
C142        C  0.31029020  0.79074861  0.51046812    -0.08700
C143        C  0.31840147  0.82826741  0.51830472     0.06900
C144        C  0.34413175  0.84369657  0.49824043    -0.13800
S145        S  0.38024995  0.75520015  0.43324489    -0.30700
H146        H  0.32331229  0.73988301  0.47947225     0.11200
S147        S  0.29674671  0.85792252  0.55333363    -0.27800
H148        H  0.34965340  0.87286893  0.50324543     0.08400
H149        H  0.49019213  0.88602465  0.45237331     0.26800
H150        H  0.36410618  0.72159613  0.43982094     0.21600
H151        H  0.28643863  0.82923206  0.58003657     0.26900
H152        H  0.33091973  0.83587839  0.40319966     0.15800
C153        C  0.13182613  0.88759286  0.43267720    -0.11500
C154        C  0.12206178  0.85489615  0.45281080     0.15000
C155        C  0.09026281  0.84557263  0.45303268     0.01900
C156        C  0.06914136  0.86847121  0.43182465    -0.15900
C157        C  0.07889524  0.90118495  0.41140765    -0.10700
C158        C  0.11065179  0.91116416  0.41278084     0.08600
C159        C  0.14583439  0.83199883  0.47404047     0.09700
S160        S  0.07511027  0.80524107  0.47999088    -0.25000
H161        H  0.04485979  0.86071671  0.43139926     0.19900
S162        S  0.12552879  0.95450473  0.39219756    -0.30700
H163        H  0.15614487  0.89520866  0.43329405     0.10300
C164        C  0.15580548  0.79767905  0.45730646     0.03500
C165        C  0.18041925  0.77875555  0.47673486    -0.13000
C166        C  0.19543300  0.79385467  0.51202530    -0.08700
C167        C  0.18497064  0.82784068  0.52919374     0.06900
C168        C  0.16033340  0.84652370  0.50998938    -0.13800
S169        S  0.13878085  0.77941968  0.40959197    -0.30700
H170        H  0.18903103  0.75303804  0.46332522     0.11200
S171        S  0.20306617  0.84982751  0.57405002    -0.27800
H172        H  0.15278449  0.87306492  0.52260660     0.08400
H173        H  0.10098872  0.97618048  0.40781438     0.26800
H174        H  0.15608424  0.74623772  0.40827293     0.21600
H175        H  0.21480349  0.81717093  0.59250735     0.26900
H176        H  0.09814970  0.80352877  0.51125836     0.15800
C177        C  0.26970566  0.31863180  0.69342081    -0.11500
C178        C  0.25491152  0.32767180  0.65542676     0.15000
C179        C  0.23956586  0.36219979  0.65154624     0.01900
C180        C  0.24032084  0.38739652  0.68497460    -0.15900
C181        C  0.25520969  0.37867061  0.72309785    -0.10700
C182        C  0.26965816  0.34344316  0.72746408     0.08600
C183        C  0.25565250  0.30060567  0.62038613     0.09700
S184        S  0.21843116  0.37575715  0.60492615    -0.25000
H185        H  0.22893757  0.41410904  0.68115318     0.19900
S186        S  0.28709424  0.32769857  0.77590880    -0.30700
H187        H  0.28103283  0.29182900  0.69671044     0.10300
C188        C  0.27306495  0.30748295  0.58380958     0.03500
C189        C  0.27137494  0.28226085  0.55022186    -0.13000
C190        C  0.25311811  0.24983788  0.55274231    -0.08700
C191        C  0.23686707  0.24222376  0.59037851     0.06900
C192        C  0.23792964  0.26794715  0.62341274    -0.13800
S193        S  0.29790516  0.34797195  0.58028931    -0.30700
H194        H  0.28430635  0.28777672  0.52176162     0.11200
S195        S  0.21552228  0.19964093  0.59910666    -0.27800
H196        H  0.22495989  0.26239664  0.65187973     0.08400
H197        H  0.26364258  0.34219470  0.80182000     0.26800
H198        H  0.30676600  0.34289208  0.53817036     0.21600
H199        H  0.23573939  0.17673699  0.57609584     0.26900
H200        H  0.20916849  0.33964245  0.59313090     0.15800
C201        C  0.23664858  0.60871152  0.72069639    -0.11500
C202        C  0.25329291  0.60578154  0.68304168     0.15000
C203        C  0.26938862  0.57248725  0.67410880     0.01900
C204        C  0.26665491  0.54214682  0.70144511    -0.15900
C205        C  0.24915634  0.54453180  0.73858551    -0.10700
C206        C  0.23492608  0.57882554  0.74890566     0.08600
C207        C  0.25270979  0.63762424  0.65344488     0.09700
S208        S  0.29381319  0.56688543  0.62856495    -0.25000
H209        H  0.27834721  0.51638596  0.69353548     0.19900
S210        S  0.21546619  0.58689966  0.79814288    -0.30700
H211        H  0.22497321  0.63458788  0.72821215     0.10300
C212        C  0.23727086  0.63523786  0.61436715     0.03500
C213        C  0.23715320  0.66618384  0.58744865    -0.13000
C214        C  0.25181087  0.69960134  0.59901543    -0.08700
C215        C  0.26633004  0.70232657  0.63880825     0.06900
C216        C  0.26692887  0.67121764  0.66533372    -0.13800
S217        S  0.21692551  0.59321848  0.59924742    -0.30700
H218        H  0.22575493  0.66439873  0.55713980     0.11200
S219        S  0.28355689  0.74493523  0.65809861    -0.27800
H220        H  0.27825615  0.67328928  0.69569941     0.08400
H221        H  0.23716953  0.56710700  0.82258215     0.26800
H222        H  0.20826223  0.60505485  0.55872790     0.21600
H223        H  0.26308045  0.76915689  0.63712597     0.26900
H224        H  0.30172237  0.60472283  0.62424188     0.15800
C225        C  0.12732799  0.33112733  0.87331574    -0.11500
C226        C  0.13211479  0.31487157  0.91286606     0.15000
C227        C  0.15919004  0.32365067  0.93576286     0.01900
C228        C  0.17999388  0.34995791  0.91967974    -0.15900
C229        C  0.17469181  0.36760334  0.88081137    -0.10700
C230        C  0.14800133  0.35762622  0.85724018     0.08600
C231        C  0.10651839  0.29289213  0.93134219     0.09700
S232        S  0.16783351  0.30340113  0.98635733    -0.25000
H233        H  0.20039872  0.35703521  0.93801704     0.19900
S234        S  0.13734536  0.37970542  0.80839373    -0.30700
H235        H  0.10633395  0.32471550  0.85592590     0.10300
C236        C  0.08565018  0.30948739  0.95969312     0.03500
C237        C  0.05973985  0.28929081  0.97326333    -0.13000
C238        C  0.05428137  0.25278878  0.95916995    -0.08700
C239        C  0.07569241  0.23579145  0.93171644     0.06900
C240        C  0.10160866  0.25603895  0.91810208    -0.13800
S241        S  0.09128801  0.35697111  0.97719480    -0.30700
H242        H  0.04325221  0.30213870  0.99433311     0.11200
S243        S  0.07075158  0.18904432  0.91188342    -0.27800
H244        H  0.11764088  0.24337205  0.89622606     0.08400
H245        H  0.14366532  0.41609512  0.82251670     0.26800
H246        H  0.06639237  0.35785630  0.00561299     0.21600
H247        H  0.03817931  0.18929873  0.91130271     0.26900
H248        H  0.15139041  0.27000544  0.97996604     0.15800
C249        C  0.39309577  0.28781824  0.97839635    -0.11500
C250        C  0.38623693  0.29175177  0.93557161     0.15000
C251        C  0.40541496  0.27461140  0.90539409     0.01900
C252        C  0.43169933  0.25509963  0.91864085    -0.15900
C253        C  0.43937534  0.25250574  0.96143588    -0.10700
C254        C  0.41972270  0.26901593  0.99164164     0.08600
C255        C  0.36302867  0.31980905  0.92331167     0.09700
S256        S  0.39848873  0.27840554  0.84957257    -0.25000
H257        H  0.44670812  0.24256420  0.89535805     0.19900
S258        S  0.42877494  0.27027903  0.04703624    -0.30700
H259        H  0.37883567  0.30185815  0.00147060     0.10300
C260        C  0.33093655  0.31318735  0.92593858     0.03500
C261        C  0.31023771  0.34128016  0.91340038    -0.13000
C262        C  0.32118412  0.37608985  0.89934091    -0.08700
C263        C  0.35352197  0.38312225  0.89953909     0.06900
C264        C  0.37393371  0.35469229  0.91046668    -0.13800
S265        S  0.31651525  0.26875944  0.94406866    -0.30700
H266        H  0.28554575  0.33584196  0.91368288     0.11200
S267        S  0.37045413  0.42810848  0.88848193    -0.27800
H268        H  0.39867416  0.36006509  0.91000334     0.08400
H269        H  0.46094052  0.27471403  0.04188288     0.26800
H270        H  0.28492871  0.27844525  0.94386822     0.21600
H271        H  0.34783746  0.44823943  0.91071797     0.26900
H272        H  0.36634444  0.28425114  0.85218227     0.15800
C273        C  0.01048041  0.14115234  0.12074739    -0.11500
C274        C  0.99388674  0.10799638  0.11447377     0.15000
C275        C  0.47825017  0.10199545  0.07601572     0.01900
C276        C  0.48050729  0.12873677  0.04414379    -0.15900
C277        C  0.99717221  0.16205218  0.05035583    -0.10700
C278        C  0.01177311  0.16851695  0.08955727     0.08600
C279        C  0.99345844  0.08038936  0.14888053     0.09700
S280        S  0.45491451  0.06115741  0.06577836    -0.25000
H281        H  0.46880165  0.12384246  0.01443687     0.19900
S282        S  0.03100286  0.21171076  0.10264820    -0.30700
H283        H  0.02204992  0.14601875  0.15057856     0.10300
C284        C  0.01083879  0.04729190  0.14667335     0.03500
C285        C  0.01064043  0.02261897  0.18081481    -0.13000
C286        C  0.99369807  0.03054702  0.21744111    -0.08700
C287        C  0.47651710  0.06423148  0.21965078     0.06900
C288        C  0.47633574  0.08844505  0.18520397    -0.13800
S289        S  0.03414376  0.03711944  0.10102329    -0.30700
H290        H  0.02387244  0.99706581  0.17901504     0.11200
S291        S  0.45609572  0.07921270  0.26603088    -0.27800
H292        H  0.46336392  0.11424056  0.18699353     0.08400
H293        H  0.01022490  0.23474536  0.08053396     0.26800
H294        H  0.04377562  0.00138928  0.11372532     0.21600
H295        H  0.47998987  0.06891277  0.29388996     0.26900
H296        H  0.94617437  0.05469829  0.10775178     0.15800
C297        C  0.11862336  0.53578924  0.92592483    -0.11500
C298        C  0.12711817  0.57220865  0.93689848     0.15000
C299        C  0.15808663  0.58397293  0.93175892     0.01900
C300        C  0.17988498  0.55902892  0.91547684    -0.15900
C301        C  0.17125693  0.52275035  0.90363450    -0.10700
C302        C  0.14033381  0.51085470  0.90984023     0.08600
C303        C  0.10295580  0.59666163  0.95430197     0.09700
S304        S  0.17113229  0.63031107  0.94501067    -0.25000
H305        H  0.20355321  0.56833830  0.91091619     0.19900
S306        S  0.12746522  0.46377779  0.90010043    -0.30700
H307        H  0.09493317  0.52657030  0.93060562     0.10300
C308        C  0.08095380  0.61364132  0.92781136     0.03500
C309        C  0.05626943  0.63326562  0.94560450    -0.13000
C310        C  0.05296573  0.63590240  0.98939842    -0.08700
C311        C  0.07548313  0.61937394  0.01590026     0.06900
C312        C  0.10042788  0.60031340  0.99799389    -0.13800
S313        S  0.08422699  0.60987617  0.87137088    -0.30700
H314        H  0.03905596  0.64610693  0.92538908     0.11200
S315        S  0.07279053  0.61953376  0.07248417    -0.27800
H316        H  0.11729347  0.58682448  0.01825957     0.08400
H317        H  0.15421532  0.44730330  0.91718385     0.26800
H318        H  0.05798396  0.63137395  0.86135226     0.21600
H319        H  0.04032113  0.61633731  0.07399632     0.26900
H320        H  0.14274969  0.64844163  0.93793453     0.15800
C321        C  0.33588726  0.57322605  0.95924474    -0.11500
C322        C  0.36387447  0.58050387  0.93854800     0.15000
C323        C  0.36889850  0.56525823  0.89819669     0.01900
C324        C  0.34600442  0.54292636  0.87970308    -0.15900
C325        C  0.31833114  0.53456425  0.90087785    -0.10700
C326        C  0.31296266  0.55090294  0.94068840     0.08600
C327        C  0.38787380  0.60277182  0.96045840     0.09700
S328        S  0.40429450  0.57215837  0.86907501    -0.25000
H329        H  0.35053423  0.53051283  0.84928997     0.19900
S330        S  0.27700810  0.54552566  0.96865028    -0.30700
H331        H  0.33183134  0.58522323  0.98999594     0.10300
C332        C  0.39489769  0.63968702  0.94850600     0.03500
C333        C  0.42026184  0.65798307  0.96717647    -0.13000
C334        C  0.43848472  0.64000822  0.99762440    -0.08700
C335        C  0.43016120  0.60390016  0.01131948     0.06900
C336        C  0.40504661  0.58566004  0.99253054    -0.13800
S337        S  0.37219207  0.66290498  0.90859513    -0.30700
H338        H  0.42686026  0.68559861  0.95667423     0.11200
S339        S  0.45154556  0.57906659  0.05130245    -0.27800
H340        H  0.39941802  0.55743145  0.00204420     0.08400
H341        H  0.25860541  0.54754146  0.93217981     0.26800
H342        H  0.38714887  0.69769685  0.91156973     0.21600
H343        H  0.46227025  0.61084125  0.07281147     0.26900
H344        H  0.42415496  0.57576390  0.90392569     0.15800
C345        C  0.48226266  0.81752447  0.20459713    -0.11500
C346        C  0.00847732  0.81259101  0.17931949     0.15000
C347        C  0.03507011  0.83486874  0.18622975     0.01900
C348        C  0.03460836  0.86208538  0.21781422    -0.15900
C349        C  0.50791894  0.86790352  0.24228556    -0.10700
C350        C  0.48190569  0.84444288  0.23631679     0.08600
C351        C  0.00697817  0.78395242  0.14605539     0.09700
S352        S  0.07010812  0.83052512  0.15574790    -0.25000
H353        H  0.05465514  0.87997092  0.22200962     0.19900
S354        S  0.44816195  0.84648709  0.26935363    -0.30700
H355        H  0.46209258  0.79993680  0.19985945     0.10300
C356        C  0.01919985  0.74802758  0.15233741     0.03500
C357        C  0.01675597  0.72153491  0.12010325    -0.13000
C358        C  0.50238702  0.73046266  0.08155237    -0.08700
C359        C  0.49037088  0.76665721  0.07527477     0.06900
C360        C  0.49241806  0.79288735  0.10774227    -0.13800
S361        S  0.03721807  0.73572869  0.20173708    -0.30700
H362        H  0.02569653  0.69369366  0.12490033     0.11200
S363        S  0.47294279  0.78136907  0.02641005    -0.27800
H364        H  0.48305575  0.82055517  0.10303706     0.08400
H365        H  0.46565137  0.85072106  0.30643613     0.26800
H366        H  0.04710663  0.69995529  0.18965838     0.21600
H367        H  0.49082873  0.75823952  0.00036528     0.26900
H368        H  0.05691090  0.81421909  0.11977833     0.15800
C369        C  0.49976185  0.70082100  0.04947931     0.03000
C370        C  0.97050896  0.68691344  0.03716663    -0.13200
C371        C  0.96856108  0.65653692  0.00949370     0.00500
C372        C  0.99570336  0.64048295  0.99386797    -0.11700
C373        C  0.52482022  0.65416375  0.00575321     0.03000
C374        C  0.52677749  0.68445451  0.03343254    -0.11100
H375        H  0.94955165  0.69891379  0.04998053     0.08600
H376        H  0.99412010  0.61680036  0.97277770     0.06100
H377        H  0.54931596  0.69508369  0.04283242     0.06000
C378        C  0.49742328  0.19013426  0.01636875     0.03000
C379        C  0.52546883  0.20457657  0.00083461    -0.13200
C380        C  0.52522019  0.23430592  0.97219289     0.00500
C381        C  0.49687181  0.24903309  0.95852908    -0.11700
C382        C  0.96882625  0.23458892  0.97350417     0.03000
C383        C  0.96921388  0.20468489  0.00178488    -0.11100
H384        H  0.54736980  0.19373126  0.01222903     0.08600
H385        H  0.49667465  0.27271766  0.93733516     0.06100
H386        H  0.94754377  0.19386330  0.01392973     0.06000
O387        O  0.76906085  0.48801785  0.76567602    -0.85500
O388        O  0.79480164  0.50403306  0.84258320    -0.82500
C389        C  0.79723063  0.50632133  0.88203378     0.98000
O390        O  0.78373881  0.48287519  0.90553667    -0.82600
O391        O  0.72132397  0.49649207  0.89933828    -0.85200
C392        C  0.69445796  0.49831987  0.88400933     1.02500
O393        O  0.68698769  0.47850710  0.85276303    -0.78000
O394        O  0.72303441  0.50466171  0.78724530    -0.78200
C395        C  0.74690151  0.51101096  0.76553536     1.02500
O396        O  0.77654879  0.40983926  0.78274517    -0.85500
O397        O  0.80768534  0.42706326  0.85573652    -0.82500
C398        C  0.79877766  0.40378802  0.88288466     0.98000
O399        O  0.77128241  0.40437118  0.89600263    -0.82600
O400        O  0.70869786  0.41774983  0.89582345    -0.85200
C401        C  0.69623443  0.39762734  0.86766147     1.02500
O402        O  0.70135448  0.40394495  0.82927700    -0.76800
O403        O  0.73180933  0.42920756  0.75878717    -0.78100
C404        C  0.75440203  0.40682134  0.75702212     1.02400
Cr405      Cr  0.78420144  0.45691039  0.81362988     1.93700
Cr406      Cr  0.74637831  0.45061382  0.89486405     1.93200
Cr407      Cr  0.71348252  0.45414918  0.80920550     1.39100
O408        O  0.74801901  0.45377812  0.83940438    -1.23200
C409        C  0.75208858  0.73067029  0.56836242     0.03000
C410        C  0.78037078  0.74482677  0.55342403    -0.13200
C411        C  0.78073395  0.77513810  0.52563364     0.00500
C412        C  0.75269358  0.79074730  0.51210035    -0.11700
C413        C  0.72442718  0.77649001  0.52634162     0.03000
C414        C  0.72408316  0.74623771  0.55418195    -0.11100
H415        H  0.80203241  0.73265621  0.56390464     0.08600
H416        H  0.75286277  0.81411110  0.49044224     0.06100
H417        H  0.70217215  0.73541532  0.56545264     0.06000
C418        C  0.75246939  0.22410425  0.51612996     0.03000
C419        C  0.78052672  0.21105196  0.49947966    -0.13200
C420        C  0.78058439  0.18556438  0.46616193     0.00500
C421        C  0.75241648  0.17269757  0.44970193    -0.11700
C422        C  0.72424744  0.18552520  0.46582195     0.03000
C423        C  0.72426155  0.21179368  0.49850471    -0.11100
H424        H  0.80235955  0.21988178  0.51323947     0.08600
H425        H  0.75239397  0.15159056  0.42529735     0.06100
H426        H  0.70244096  0.22153364  0.51113549     0.06000
O427        O  0.98261125  0.92094549  0.26971279    -0.85500
O428        O  0.95699193  0.91145494  0.34762964    -0.82500
C429        C  0.95368696  0.91312293  0.38690121     0.98000
O430        O  0.96567881  0.93978454  0.40738677    -0.82600
O431        O  0.52849816  0.92650927  0.40383321    -0.85200
C432        C  0.55554974  0.92412362  0.38929539     1.02500
O433        O  0.56306824  0.94202815  0.35658544    -0.78000
O434        O  0.53007003  0.91043832  0.29130198    -0.78200
C435        C  0.00676072  0.90098200  0.26991846     1.02500
O436        O  0.97227649  0.99998816  0.27711179    -0.85500
O437        O  0.94179204  0.98932136  0.35105087    -0.82500
C438        C  0.95086242  0.01667702  0.37304612     0.98000
O439        O  0.97787196  0.01687872  0.38805675    -0.82600
O440        O  0.54035783  0.00446591  0.39290238    -0.85200
C441        C  0.55178122  0.02368603  0.36335601     1.02500
O442        O  0.54653098  0.01473162  0.32572166    -0.78000
O443        O  0.51843321  0.98303496  0.25690023    -0.78100
C444        C  0.49477789  0.00346137  0.25256800     1.02400
Cr445      Cr  0.96615587  0.95590428  0.31328024     1.93700
Cr446      Cr  0.00297346  0.97125603  0.39384763     1.93200
Cr447      Cr  0.53684452  0.96254756  0.30988880     1.39100
O448        O  0.50199024  0.96303211  0.33904468    -1.23200
C449        C  0.91460178  0.10585172  0.41609128    -0.11500
C450        C  0.88314707  0.09846804  0.40892412     0.15000
C451        C  0.87436542  0.06596461  0.38701681     0.01900
C452        C  0.89708720  0.04081015  0.37432028    -0.15900
C453        C  0.92868484  0.04702366  0.38306024    -0.10700
C454        C  0.93750000  0.08098798  0.40271613     0.08600
C455        C  0.85982570  0.12484513  0.42482718     0.09700
S456        S  0.83455009  0.05452852  0.37488870    -0.25000
H457        H  0.88970389  0.01548252  0.35862177     0.19900
S458        S  0.97720526  0.09513507  0.41075223    -0.30700
H459        H  0.92133275  0.13137561  0.43197005     0.10300
C460        C  0.85171230  0.12530609  0.46767371     0.03500
C461        C  0.82681296  0.14733675  0.48078187    -0.13000
C462        C  0.80983258  0.16867857  0.45182351    -0.08700
C463        C  0.81911647  0.16969825  0.40929147     0.06900
C464        C  0.84392239  0.14759967  0.39620538    -0.13800
S465        S  0.87148228  0.09567592  0.50503298    -0.30700
H466        H  0.81944133  0.14644106  0.51327782     0.11200
S467        S  0.79995601  0.19800459  0.37023095    -0.27800
H468        H  0.85042123  0.14738327  0.36332308     0.08400
H469        H  0.98688177  0.08431163  0.37037539     0.26800
H470        H  0.85542502  0.10778560  0.54092666     0.21600
H471        H  0.78944867  0.22547826  0.39828315     0.26900
H472        H  0.82151698  0.07049166  0.41106484     0.15800
C473        C  0.64812691  0.16606473  0.40914830    -0.11500
C474        C  0.64303523  0.12881303  0.42083368     0.15000
C475        C  0.66419291  0.11109622  0.44830224     0.01900
C476        C  0.68974484  0.13090910  0.46349502    -0.15900
C477        C  0.69523340  0.16786627  0.45126315    -0.10700
C478        C  0.67413431  0.18573251  0.42387869     0.08600
C479        C  0.61616275  0.10830790  0.40332414     0.09700
S480        S  0.66019558  0.06313658  0.46478573    -0.25000
H481        H  0.70601138  0.11706952  0.48434251     0.19900
S482        S  0.67932172  0.23310045  0.40615945    -0.30700
H483        H  0.63199143  0.17966797  0.38794411     0.10300
C484        C  0.59091457  0.09821943  0.42878447     0.03500
C485        C  0.56936373  0.07203463  0.41391141    -0.13000
C486        C  0.57255493  0.05544211  0.37404803    -0.08700
C487        C  0.59685599  0.06779523  0.34749875     0.06900
C488        C  0.61807180  0.09437163  0.36228402    -0.13800
S489        S  0.58692548  0.11763858  0.48087357    -0.30700
H490        H  0.55046223  0.06351815  0.43407355     0.11200
S491        S  0.60404355  0.04854479  0.29616548    -0.27800
H492        H  0.63756364  0.10220202  0.34274147     0.08400
H493        H  0.71187440  0.23340506  0.40780300     0.26800
H494        H  0.55957539  0.09854656  0.49164963     0.21600
H495        H  0.60421732  0.01144473  0.31061194     0.26900
H496        H  0.64695377  0.04977890  0.42727200     0.15800
C497        C  0.91289803  0.85567763  0.47105871    -0.11500
C498        C  0.88762717  0.84162787  0.44816500     0.15000
C499        C  0.88573748  0.84861062  0.40453397     0.01900
C500        C  0.90876769  0.86989250  0.38505984    -0.15900
C501        C  0.93333611  0.88561736  0.40823853    -0.10700
C502        C  0.93589209  0.87711759  0.45160321     0.08600
C503        C  0.86244132  0.82254852  0.47123689     0.09700
S504        S  0.85372948  0.83311281  0.37224280    -0.25000
H505        H  0.90638435  0.87601135  0.35184757     0.19900
S506        S  0.96807612  0.89198239  0.48374619    -0.30700
H507        H  0.91457747  0.85008020  0.50446145     0.10300
C508        C  0.85576156  0.78433842  0.46570213     0.03500
C509        C  0.82954876  0.76894359  0.48523653    -0.13000
C510        C  0.81028927  0.79095618  0.51058334    -0.08700
C511        C  0.81832664  0.82851893  0.51830920     0.06900
C512        C  0.84405430  0.84395864  0.49824535    -0.13800
S513        S  0.88040421  0.75538060  0.43363982    -0.30700
H514        H  0.82344411  0.74004121  0.47979366     0.11200
S515        S  0.79659127  0.85820641  0.55320994    -0.27800
H516        H  0.84952258  0.87315850  0.50315635     0.08400
H517        H  0.99023393  0.88596241  0.45219061     0.26800
H518        H  0.86436008  0.72173407  0.44038395     0.21600
H519        H  0.78633510  0.82954701  0.57999304     0.26900
H520        H  0.83085077  0.83612315  0.40338656     0.15800
C521        C  0.63178563  0.88758028  0.43265811    -0.11500
C522        C  0.62203117  0.85483653  0.45270224     0.15000
C523        C  0.59024120  0.84545552  0.45283326     0.01900
C524        C  0.56912174  0.86837114  0.43165063    -0.15900
C525        C  0.57886784  0.90113233  0.41132844    -0.10700
C526        C  0.61061221  0.91115229  0.41277023     0.08600
C527        C  0.64580797  0.83195786  0.47393127     0.09700
S528        S  0.57508109  0.80502415  0.47960506    -0.25000
H529        H  0.54484664  0.86058795  0.43115994     0.19900
S530        S  0.62546782  0.95454211  0.39229033    -0.30700
H531        H  0.65610052  0.89523195  0.43333884     0.10300
C532        C  0.65586751  0.79770842  0.45712037     0.03500
C533        C  0.68048703  0.77880886  0.47655841    -0.13000
C534        C  0.69542829  0.79387722  0.51192163    -0.08700
C535        C  0.68488723  0.82780223  0.52915486     0.06900
C536        C  0.66023251  0.84644903  0.50995137    -0.13800
S537        S  0.63894312  0.77951532  0.40930843    -0.30700
H538        H  0.68915979  0.75314214  0.46310559     0.11200
S539        S  0.70289658  0.84977018  0.57409005    -0.27800
H540        H  0.65261745  0.87294400  0.52261854     0.08400
H541        H  0.60089325  0.97616035  0.40790565     0.26800
H542        H  0.65636089  0.74642426  0.40788082     0.21600
H543        H  0.71483555  0.81715940  0.59240846     0.26900
H544        H  0.59824163  0.80294291  0.51067245     0.15800
C545        C  0.76955069  0.31852714  0.69342384    -0.11500
C546        C  0.75471910  0.32752128  0.65544305     0.15000
C547        C  0.73932071  0.36201603  0.65156397     0.01900
C548        C  0.74008215  0.38723723  0.68496914    -0.15900
C549        C  0.75503833  0.37857286  0.72306429    -0.10700
C550        C  0.76951372  0.34336371  0.72744295     0.08600
C551        C  0.75551730  0.30046376  0.62039671     0.09700
S552        S  0.71813702  0.37551873  0.60496208    -0.25000
H553        H  0.72866787  0.41392864  0.68114110     0.19900
S554        S  0.78701264  0.32768202  0.77587119    -0.30700
H555        H  0.78091544  0.29174462  0.69671593     0.10300
C556        C  0.77292724  0.30739864  0.58383109     0.03500
C557        C  0.77131038  0.28216938  0.55024531    -0.13000
C558        C  0.75311763  0.24969485  0.55274766    -0.08700
C559        C  0.73686698  0.24202717  0.59037077     0.06900
C560        C  0.73786589  0.26774808  0.62341172    -0.13800
S561        S  0.79766005  0.34798284  0.58031404    -0.30700
H562        H  0.78423916  0.28772969  0.52178975     0.11200
S563        S  0.71559093  0.19938848  0.59906659    -0.27800
H564        H  0.72490016  0.26215525  0.65186740     0.08400
H565        H  0.76357161  0.34216845  0.80180754     0.26800
H566        H  0.80653571  0.34293966  0.53819532     0.21600
H567        H  0.73583517  0.17654654  0.57602185     0.26900
H568        H  0.70898769  0.33937736  0.59311195     0.15800
C569        C  0.73670351  0.60866551  0.72049859    -0.11500
C570        C  0.75311992  0.60559677  0.68266878     0.15000
C571        C  0.76900961  0.57218431  0.67360808     0.01900
C572        C  0.76628032  0.54187882  0.70099628    -0.15900
C573        C  0.74901935  0.54442075  0.73832391    -0.10700
C574        C  0.73501396  0.57881627  0.74876313     0.08600
C575        C  0.75258553  0.63746276  0.65308976     0.09700
S576        S  0.79321373  0.56641386  0.62787781    -0.25000
H577        H  0.77780986  0.51603178  0.69300348     0.19900
S578        S  0.71592847  0.58706642  0.79823465    -0.30700
H579        H  0.72520379  0.63462832  0.72812275     0.10300
C580        C  0.73708624  0.63518208  0.61404280     0.03500
C581        C  0.73704942  0.66614770  0.58714829    -0.13000
C582        C  0.75178645  0.69950869  0.59874462    -0.08700
C583        C  0.76631715  0.70214893  0.63853598     0.06900
C584        C  0.76688676  0.67100088  0.66500030    -0.13800
S585        S  0.71654269  0.59329171  0.59895039    -0.30700
H586        H  0.72563784  0.66442862  0.55683931     0.11200
S587        S  0.78356296  0.74471124  0.65792661    -0.27800
H588        H  0.77823888  0.67300905  0.69535875     0.08400
H589        H  0.73762510  0.56702301  0.82242139     0.26800
H590        H  0.70718427  0.60554564  0.55887381     0.21600
H591        H  0.76307380  0.76898276  0.63704910     0.26900
H592        H  0.80138237  0.60418017  0.62363262     0.15800
C593        C  0.62730502  0.33104105  0.87326563    -0.11500
C594        C  0.63208224  0.31484023  0.91284717     0.15000
C595        C  0.65914135  0.32367757  0.93575280     0.01900
C596        C  0.67992773  0.34999820  0.91965536    -0.15900
C597        C  0.67462806  0.36759651  0.88075853    -0.10700
C598        C  0.64796040  0.35755404  0.85717514     0.08600
C599        C  0.60650652  0.29281465  0.93131593     0.09700
S600        S  0.66779351  0.30346392  0.98636340    -0.25000
H601        H  0.70031639  0.35711723  0.93799793     0.19900
S602        S  0.63730660  0.37957110  0.80829315    -0.30700
H603        H  0.60632848  0.32457692  0.85585932     0.10300
C604        C  0.58577923  0.30926461  0.95996639     0.03500
C605        C  0.55986052  0.28906717  0.97349803    -0.13000
C606        C  0.55429063  0.25267200  0.95914462    -0.08700
C607        C  0.57559425  0.23577876  0.93146064     0.06900
C608        C  0.60149461  0.25604910  0.91783387    -0.13800
S609        S  0.59152375  0.35661260  0.97783516    -0.30700
H610        H  0.54343325  0.30186826  0.99469849     0.11200
S611        S  0.57053761  0.18913422  0.91137520    -0.27800
H612        H  0.61743579  0.24347062  0.89577011     0.08400
H613        H  0.64355627  0.41598402  0.82239948     0.26800
H614        H  0.56816278  0.35633801  0.00857884     0.21600
H615        H  0.53796507  0.18944019  0.91096664     0.26900
H616        H  0.65141514  0.27002444  0.97994773     0.15800
C617        C  0.89300454  0.28783226  0.97849825    -0.11500
C618        C  0.88622744  0.29189956  0.93566444     0.15000
C619        C  0.90548317  0.27488050  0.90549129     0.01900
C620        C  0.93176389  0.25537161  0.91875295    -0.15900
C621        C  0.93936155  0.25264636  0.96156419    -0.10700
C622        C  0.91962490  0.26902215  0.99176540     0.08600
C623        C  0.86300051  0.31994766  0.92341769     0.09700
S624        S  0.89864551  0.27880847  0.84966284    -0.25000
H625        H  0.94682748  0.24293149  0.89546990     0.19900
S626        S  0.92855563  0.27011310  0.04719935    -0.30700
H627        H  0.87868291  0.30177174  0.00157654     0.10300
C628        C  0.83091024  0.31331513  0.92608054     0.03500
C629        C  0.81019424  0.34137217  0.91348877    -0.13000
C630        C  0.82111888  0.37617066  0.89936450    -0.08700
C631        C  0.85345192  0.38323663  0.89957830     0.06900
C632        C  0.87388256  0.35483317  0.91053840    -0.13800
S633        S  0.81650379  0.26891083  0.94429929    -0.30700
H634        H  0.78550668  0.33590534  0.91376664     0.11200
S635        S  0.87035007  0.42823755  0.88850391    -0.27800
H636        H  0.89862100  0.36022863  0.91006801     0.08400
H637        H  0.96072431  0.27464502  0.04218299     0.26800
H638        H  0.78496445  0.27880393  0.94476519     0.21600
H639        H  0.84768961  0.44835597  0.91067178     0.26900
H640        H  0.86647818  0.28450060  0.85220737     0.15800
C641        C  0.51036337  0.14122000  0.12079994    -0.11500
C642        C  0.49383472  0.10801704  0.11452398     0.15000
C643        C  0.97822001  0.10206554  0.07601090     0.01900
C644        C  0.98047268  0.12883511  0.04416891    -0.15900
C645        C  0.49714517  0.16199703  0.05033224    -0.10700
C646        C  0.51166952  0.16854535  0.08956619     0.08600
C647        C  0.49341602  0.08043647  0.14895442     0.09700
S648        S  0.95476157  0.06132268  0.06582968    -0.25000
H649        H  0.96870286  0.12400300  0.01448868     0.19900
S650        S  0.53081948  0.21179661  0.10263038    -0.30700
H651        H  0.52187477  0.14614867  0.15065643     0.10300
C652        C  0.51093171  0.04744041  0.14685686     0.03500
C653        C  0.51070249  0.02275953  0.18098690    -0.13000
C654        C  0.49359926  0.03057974  0.21750778    -0.08700
C655        C  0.97675807  0.06429260  0.21969323     0.06900
C656        C  0.97654014  0.08849882  0.18524296    -0.13800
S657        S  0.53443394  0.03740680  0.10135413    -0.30700
H658        H  0.52404125  0.99728135  0.17925765     0.11200
S659        S  0.95659441  0.07940589  0.26622757    -0.27800
H660        H  0.96368346  0.11436522  0.18712045     0.08400
H661        H  0.51003668  0.23475754  0.08042652     0.26800
H662        H  0.54416216  0.00172958  0.11410969     0.21600
H663        H  0.98051435  0.06885478  0.29392449     0.26900
H664        H  0.44643057  0.05431951  0.10769343     0.15800
C665        C  0.61852840  0.53587149  0.92559987    -0.11500
C666        C  0.62699731  0.57233699  0.93640245     0.15000
C667        C  0.65794302  0.58414204  0.93113935     0.01900
C668        C  0.67976318  0.55916169  0.91498800    -0.15900
C669        C  0.67116577  0.52282207  0.90335525    -0.10700
C670        C  0.64025088  0.51091431  0.90960252     0.08600
C671        C  0.60284906  0.59677268  0.95385208     0.09700
S672        S  0.67092015  0.63058294  0.94404824    -0.25000
H673        H  0.70342514  0.56848612  0.91035451     0.19900
S674        S  0.62740454  0.46380499  0.90000206    -0.30700
H675        H  0.59485034  0.52663392  0.93035609     0.10300
C676        C  0.58074167  0.61363773  0.92743195     0.03500
C677        C  0.55609043  0.63325911  0.94530607    -0.13000
C678        C  0.55291474  0.63598465  0.98911172    -0.08700
C679        C  0.57551783  0.61953297  0.01553761     0.06900
C680        C  0.60044003  0.60049885  0.99754782    -0.13800
S681        S  0.58383240  0.60972034  0.87098516    -0.30700
H682        H  0.53879941  0.64602582  0.92514588     0.11200
S683        S  0.57295504  0.61973541  0.07213227    -0.27800
H684        H  0.61737918  0.58707666  0.01775873     0.08400
H685        H  0.65416370  0.44738590  0.91712692     0.26800
H686        H  0.55763805  0.63133299  0.86104698     0.21600
H687        H  0.54049426  0.61646125  0.07377529     0.26900
H688        H  0.64249545  0.64859550  0.93689045     0.15800
C689        C  0.83592450  0.57311924  0.95914617    -0.11500
C690        C  0.86385522  0.58049208  0.93834820     0.15000
C691        C  0.86879235  0.56534675  0.89792831     0.01900
C692        C  0.84586552  0.54304965  0.87945348    -0.15900
C693        C  0.81825157  0.53459023  0.90072406    -0.10700
C694        C  0.81297401  0.55080974  0.94062367     0.08600
C695        C  0.88789352  0.60273290  0.96023562     0.09700
S696        S  0.90414268  0.57228423  0.86872309    -0.25000
H697        H  0.85033741  0.53071729  0.84898159     0.19900
S698        S  0.77711474  0.54527525  0.96877588    -0.30700
H699        H  0.83193579  0.58502370  0.98995789     0.10300
C700        C  0.89501177  0.63960505  0.94820639     0.03500
C701        C  0.92038318  0.65786846  0.96690131    -0.13000
C702        C  0.93850070  0.63992910  0.99749120    -0.08700
C703        C  0.93007459  0.60388060  0.01127116     0.06900
C704        C  0.90496988  0.58565791  0.99242989    -0.13800
S705        S  0.87239645  0.66283327  0.90821016    -0.30700
H706        H  0.92705615  0.68544129  0.95633256     0.11200
S707        S  0.95129915  0.57910320  0.05145462    -0.27800
H708        H  0.89926215  0.55746911  0.00202255     0.08400
H709        H  0.75858561  0.54737455  0.93242701     0.26800
H710        H  0.88712058  0.69773921  0.91160463     0.21600
H711        H  0.96207198  0.61089969  0.07287589     0.26900
H712        H  0.92405703  0.57560877  0.90355559     0.15800
C713        C  0.98244027  0.81731993  0.20489120    -0.11500
C714        C  0.50839872  0.81264952  0.17924884     0.15000
C715        C  0.53505269  0.83474451  0.18641526     0.01900
C716        C  0.53458115  0.86192290  0.21803688    -0.15900
C717        C  0.00803712  0.86790089  0.24229220    -0.10700
C718        C  0.98210580  0.84426967  0.23657464     0.08600
C719        C  0.50696500  0.78403788  0.14594706     0.09700
S720        S  0.57016239  0.83018447  0.15614943    -0.25000
H721        H  0.55469371  0.87966750  0.22241536     0.19900
S722        S  0.94849842  0.84615551  0.26987674    -0.30700
H723        H  0.96232565  0.79960246  0.20034523     0.10300
C724        C  0.51932574  0.74816855  0.15214517     0.03500
C725        C  0.51694686  0.72170959  0.11986757    -0.13000
C726        C  0.00227112  0.73031222  0.08174175    -0.08700
C727        C  0.99036921  0.76655389  0.07539298     0.06900
C728        C  0.99248928  0.79282204  0.10781641    -0.13800
S729        S  0.53741254  0.73588525  0.20150669    -0.30700
H730        H  0.52598349  0.69390231  0.12460205     0.11200
S731        S  0.97298208  0.78127654  0.02650486    -0.27800
H732        H  0.98322023  0.82052788  0.10305575     0.08400
H733        H  0.96612267  0.85059673  0.30681231     0.26800
H734        H  0.54692809  0.69991385  0.18962274     0.21600
H735        H  0.99077407  0.75802370  0.00048338     0.26900
H736        H  0.55672641  0.81515233  0.11962750     0.15800
loop_ 
_geom_bond_atom_site_label_1 
_geom_bond_atom_site_label_2 
_geom_bond_distance 
_geom_bond_site_symmetry_2 
_ccdc_geom_bond_type 
C1            C6   1.404   1_655  A
C1          C370   1.407       .  A
C1          C726   1.478   1_655  S
C2            C3   1.403       .  A
C2          C369   1.407       .  A
C2            H7   1.083       .  S
C3            C4   1.399   1_554  A
C3          C334   1.475   1_554  S
C4          C373   1.399   1_556  A
C4            H8   1.084       .  S
C5            C6   1.401       .  A
C5          C372   1.400   1_454  A
C5          C310   1.477   1_554  S
C6            H9   1.085       .  S
C10          C11   1.407   1_655  A
C10         C383   1.402       .  A
C10         C277   1.478       .  S
C11          C12   1.402   1_554  A
C11          H16   1.084       .  S
C12          C13   1.401   1_455  A
C12         C238   1.477       .  S
C13         C382   1.400       .  A
C13          H17   1.085       .  S
C14          C15   1.400   1_556  A
C14         C381   1.400       .  A
C14         C253   1.476       .  S
C15         C378   1.402       .  A
C15          H18   1.084       .  S
O19         Cr37   1.998       .  S
O19          C27   1.264       .  A
O20         Cr37   1.977       .  S
O20          C21   1.262       .  A
C21         C325   1.482       .  S
C21          O22   1.267       .  A
O22         Cr38   2.011       .  S
O23         Cr38   1.976       .  S
O23          C24   1.258       .  A
C24         C301   1.473       .  S
C24          O25   1.263       .  A
O25         Cr39   2.002       .  S
O26         Cr39   1.984       .  S
O26          C27   1.262       .  A
C27         C205   1.481       .  S
O28         Cr37   1.980       .  S
O28          C36   1.260       .  A
O29         Cr37   1.990       .  S
O29          C30   1.261       .  A
C30         C262   1.478       .  S
C30          O31   1.259       .  A
O31         Cr38   1.978       .  S
O32         Cr38   2.007       .  S
O32          C33   1.268       .  A
C33         C229   1.484       .  S
C33          O34   1.262       .  A
O34         Cr39   1.980       .  S
O35         Cr39   2.003       .  S
O35          C36   1.265       .  A
C36         C181   1.481       .  S
Cr37         O40   1.769       .  S
Cr38         O40   1.769       .  S
Cr39         O40   1.770       .  S
C41          C42   1.405       .  A
C41          C46   1.405       .  A
C41         C214   1.477       .  S
C42          C43   1.401       .  A
C42          H47   1.084       .  S
C43          C44   1.400       .  A
C43         C142   1.476       .  S
C44          C45   1.398       .  A
C44          H48   1.085       .  S
C45          C46   1.401       .  A
C45         C166   1.471       .  S
C46          H49   1.083       .  S
C50          C51   1.404       .  A
C50          C55   1.408       .  A
C50         C190   1.483       .  S
C51          C52   1.400       .  A
C51          H56   1.084       .  S
C52          C53   1.399       .  A
C52          C94   1.474       .  S
C53          C54   1.399       .  A
C53          H57   1.084       .  S
C54          C55   1.403       .  A
C54         C109   1.475       .  S
C55          H58   1.084       .  S
O59         Cr77   2.002       .  S
O59          C67   1.265       .  A
O60         Cr77   1.973       .  S
O60          C61   1.259       .  A
C61         C133   1.485       .  S
C61          O62   1.266       .  A
O62         Cr78   2.012       .  S
O63        Cr446   1.972       .  S
O63          C64   1.260       .  A
C64         C157   1.477       .  S
C64          O65   1.266       .  A
O65         Cr79   2.005       .  S
O66         Cr79   1.981       .  S
O66         C435   1.261       .  A
C67         C349   1.478       .  S
C67         O434   1.261       .  A
O68         Cr77   1.973   1_545  S
O68         C444   1.258       .  A
O69         Cr77   2.000       .  S
O69          C70   1.266   1_565  A
C70          C85   1.486       .  S
C70          O71   1.258       .  A
O71         Cr78   1.972   1_545  S
O72        Cr446   2.005   1_545  S
O72          C73   1.266       .  A
C73         C118   1.487       .  S
C73          O74   1.259       .  A
O74         Cr79   1.982   1_545  S
O75         Cr79   2.001       .  S
O75          C76   1.264   1_465  A
C76         C286   1.480       .  S
C76         O436   1.258   1_545  A
Cr77        O448   1.767       .  S
Cr78        O431   1.972       .  S
Cr78        O440   2.005   1_565  S
Cr78        O448   1.770       .  S
Cr79         O80   1.770       .  S
O80        Cr445   1.767   1_455  S
O80        Cr446   1.770       .  S
C81          C82   1.400       .  A
C81          C86   1.400       .  A
C81          H91   1.084       .  S
C82          C83   1.409       .  A
C82          C87   1.473       .  S
C83          C84   1.394       .  A
C83          S88   1.806       .  S
C84          C85   1.408       .  A
C84          H89   1.084       .  S
C85          C86   1.420       .  A
C86          S90   1.803       .  S
C87          C92   1.408       .  A
C87          C96   1.401       .  A
S88         H104   1.405       .  S
S90         H101   1.407       .  S
C92          C93   1.400       .  A
C92          S97   1.807       .  S
C93          C94   1.403       .  A
C93          H98   1.083       .  S
C94          C95   1.413       .  A
C95          C96   1.398       .  A
C95          S99   1.804       .  S
C96         H100   1.084       .  S
S97         H102   1.407       .  S
S99         H103   1.406       .  S
C105        C106   1.404       .  A
C105        C110   1.404       .  A
C105        H115   1.084       .  S
C106        C107   1.413       .  A
C106        C111   1.479       .  S
C107        C108   1.395       .  A
C107        S112   1.806       .  S
C108        C109   1.401       .  A
C108        H113   1.085       .  S
C109        C110   1.412       .  A
C110        S114   1.804       .  S
C111        C116   1.406       .  A
C111        C120   1.401       .  A
S112        H128   1.405       .  S
S114        H125   1.405       .  S
C116        C117   1.402       .  A
C116        S121   1.806       .  S
C117        C118   1.408       .  A
C117        H122   1.083       .  S
C118        C119   1.419       .  A
C119        C120   1.401       .  A
C119        S123   1.801       .  S
C120        H124   1.084       .  S
S121        H126   1.407       .  S
S123        H127   1.408       .  S
C129        C130   1.402       .  A
C129        C134   1.400       .  A
C129        H139   1.084       .  S
C130        C131   1.412       .  A
C130        C135   1.480       .  S
C131        C132   1.398       .  A
C131        S136   1.805       .  S
C132        C133   1.406       .  A
C132        H137   1.083       .  S
C133        C134   1.417       .  A
C134        S138   1.801       .  S
C135        C140   1.411       .  A
C135        C144   1.402       .  A
S136        H152   1.405       .  S
S138        H149   1.406       .  S
C140        C141   1.405       .  A
C140        S145   1.806       .  S
C141        C142   1.404       .  A
C141        H146   1.083       .  S
C142        C143   1.412       .  A
C143        C144   1.396       .  A
C143        S147   1.805       .  S
C144        H148   1.084       .  S
S145        H150   1.407       .  S
S147        H151   1.407       .  S
C153        C154   1.401       .  A
C153        C158   1.396       .  A
C153        H163   1.084       .  S
C154        C155   1.412       .  A
C154        C159   1.477       .  S
C155        C156   1.399       .  A
C155        S160   1.804       .  S
C156        C157   1.405       .  A
C156        H161   1.083       .  S
C157        C158   1.416       .  A
C158        S162   1.804       .  S
C159        C164   1.410       .  A
C159        C168   1.402       .  A
S160        H176   1.405       .  S
S162        H173   1.407       .  S
C164        C165   1.403       .  A
C164        S169   1.806       .  S
C165        C166   1.402       .  A
C165        H170   1.083       .  S
C166        C167   1.411       .  A
C167        C168   1.396       .  A
C167        S171   1.805       .  S
C168        H172   1.084       .  S
S169        H174   1.407       .  S
S171        H175   1.405       .  S
C177        C178   1.403       .  A
C177        C182   1.402       .  A
C177        H187   1.084       .  S
C178        C179   1.410       .  A
C178        C183   1.479       .  S
C179        C180   1.396       .  A
C179        S184   1.805       .  S
C180        C181   1.406       .  A
C180        H185   1.084       .  S
C181        C182   1.416       .  A
C182        S186   1.804       .  S
C183        C188   1.409       .  A
C183        C192   1.401       .  A
S184        H200   1.405       .  S
S186        H197   1.408       .  S
C188        C189   1.402       .  A
C188        S193   1.807       .  S
C189        C190   1.406       .  A
C189        H194   1.083       .  S
C190        C191   1.416       .  A
C191        C192   1.399       .  A
C191        S195   1.804       .  S
C192        H196   1.084       .  S
S193        H198   1.407       .  S
S195        H199   1.407       .  S
C201        C202   1.403       .  A
C201        C206   1.400       .  A
C201        H211   1.084       .  S
C202        C203   1.412       .  A
C202        C207   1.480       .  S
C203        C204   1.398       .  A
C203        S208   1.806       .  S
C204        C205   1.407       .  A
C204        H209   1.084       .  S
C205        C206   1.415       .  A
C206        S210   1.803       .  S
C207        C212   1.411       .  A
C207        C216   1.402       .  A
S208        H224   1.405       .  S
S210        H221   1.408       .  S
C212        C213   1.402       .  A
C212        S217   1.807       .  S
C213        C214   1.403       .  A
C213        H218   1.083       .  S
C214        C215   1.414       .  A
C215        C216   1.399       .  A
C215        S219   1.805       .  S
C216        H220   1.084       .  S
S217        H222   1.407       .  S
S219        H223   1.407       .  S
C225        C226   1.401       .  A
C225        C230   1.400       .  A
C225        H235   1.084       .  S
C226        C227   1.410       .  A
C226        C231   1.479       .  S
C227        C228   1.399       .  A
C227        S232   1.804       .  S
C228        C229   1.407       .  A
C228        H233   1.084       .  S
C229        C230   1.417       .  A
C230        S234   1.802       .  S
C231        C236   1.409       .  A
C231        C240   1.403       .  A
S232        H248   1.405       .  S
S234        H245   1.406       .  S
C236        C237   1.400       .  A
C236        S241   1.808       .  S
C237        C238   1.403       .  A
C237        H242   1.083       .  S
C238        C239   1.413       .  A
C239        C240   1.402       .  A
C239        S243   1.803       .  S
C240        H244   1.083       .  S
S241        H246   1.407   1_556  S
S243        H247   1.405       .  S
C249        C250   1.400       .  A
C249        C254   1.397       .  A
C249        H259   1.084   1_556  S
C250        C251   1.411       .  A
C250        C255   1.472       .  S
C251        C252   1.397       .  A
C251        S256   1.805       .  S
C252        C253   1.403       .  A
C252        H257   1.084       .  S
C253        C254   1.414       .  A
C254        S258   1.804   1_556  S
C255        C260   1.407       .  A
C255        C264   1.397       .  A
S256        H272   1.406       .  S
S258        H269   1.407       .  S
C260        C261   1.404       .  A
C260        S265   1.805       .  S
C261        C262   1.407       .  A
C261        H266   1.083       .  S
C262        C263   1.417       .  A
C263        C264   1.392       .  A
C263        S267   1.805       .  S
C264        H268   1.084       .  S
S265        H270   1.407       .  S
S267        H271   1.408       .  S
C273        C274   1.401   1_455  A
C273        C278   1.397       .  A
C273        H283   1.085       .  S
C274        C643   1.412       .  A
C274        C279   1.476       .  S
C275        C276   1.399       .  A
C275        C642   1.412       .  A
C275        S280   1.805       .  S
C276        C645   1.405       .  A
C276        H281   1.084       .  S
C277        C278   1.414   1_655  A
C277        C644   1.405       .  A
C278        S282   1.804       .  S
C279        C284   1.407   1_655  A
C279        C656   1.401       .  A
S280        H664   1.405       .  S
S282        H293   1.407       .  S
C284        C285   1.401       .  A
C284        S289   1.807       .  S
C285        C286   1.407   1_455  A
C285        H290   1.082   1_545  S
C286        C655   1.417       .  A
C287        C288   1.398       .  A
C287        C654   1.417       .  A
C287        S291   1.804       .  S
C288        C647   1.401       .  A
C288        H292   1.084       .  S
S289        H294   1.407       .  S
S291        H295   1.407       .  S
H296        S648   1.405       .  S
C297        C298   1.400       .  A
C297        C302   1.395       .  A
C297        H307   1.084       .  S
C298        C299   1.410       .  A
C298        C303   1.473       .  S
C299        C300   1.400       .  A
C299        S304   1.803       .  S
C300        C301   1.404       .  A
C300        H305   1.084       .  S
C301        C302   1.414       .  A
C302        S306   1.803       .  S
C303        C308   1.407       .  A
C303        C312   1.401       .  A
S304        H320   1.405       .  S
S306        H317   1.405       .  S
C308        C309   1.399       .  A
C308        S313   1.807       .  S
C309        C310   1.404       .  A
C309        H314   1.084       .  S
C310        C311   1.415   1_556  A
C311        C312   1.399   1_554  A
C311        S315   1.804       .  S
C312        H316   1.085   1_556  S
S313        H318   1.407       .  S
S315        H319   1.406       .  S
C321        C322   1.401       .  A
C321        C326   1.400       .  A
C321        H331   1.084       .  S
C322        C323   1.413       .  A
C322        C327   1.479       .  S
C323        C324   1.399       .  A
C323        S328   1.806       .  S
C324        C325   1.405       .  A
C324        H329   1.084       .  S
C325        C326   1.415       .  A
C326        S330   1.801       .  S
C327        C332   1.410       .  A
C327        C336   1.401       .  A
S328        H344   1.405       .  S
S330        H341   1.405       .  S
C332        C333   1.405       .  A
C332        S337   1.805       .  S
C333        C334   1.403       .  A
C333        H338   1.083       .  S
C334        C335   1.412   1_556  A
C335        C336   1.397   1_554  A
C335        S339   1.805       .  S
C336        H340   1.084   1_556  S
S337        H342   1.407       .  S
S339        H343   1.406       .  S
C345        C350   1.397       .  A
C345        C714   1.400       .  A
C345        H355   1.084       .  S
C346        C347   1.413       .  A
C346        C713   1.400   1_455  A
C346        C351   1.476       .  S
C347        C348   1.401       .  A
C347        S352   1.806       .  S
C348        C717   1.404       .  A
C348        H353   1.084       .  S
C349        C350   1.414       .  A
C349        C716   1.404       .  A
C350        S354   1.800       .  S
C351        C356   1.407       .  A
C351        C728   1.402   1_455  A
S352        H368   1.404       .  S
S354        H365   1.406       .  S
C356        C357   1.402       .  A
C356        S361   1.806       .  S
C357        C726   1.405       .  A
C357        H362   1.082       .  S
C358        C359   1.413       .  A
C358        C725   1.405       .  A
C358        C369   1.478       .  S
C359        C360   1.400       .  A
C359        S363   1.804       .  S
C360        C719   1.402       .  A
C360        H364   1.082       .  S
S361        H366   1.407       .  S
S363        H367   1.406       .  S
C369        C374   1.404       .  A
C370        C371   1.403       .  A
C370        H375   1.083       .  S
C371        C372   1.399   1_554  A
C371        C702   1.475   1_554  S
C372        H376   1.084       .  S
C373        C374   1.401       .  A
C373        C678   1.477   1_554  S
C374        H377   1.085       .  S
C378        C379   1.407       .  A
C378        C645   1.478       .  S
C379        C380   1.402   1_554  A
C379        H384   1.084       .  S
C380        C381   1.401       .  A
C380        C606   1.476       .  S
C381        H385   1.084       .  S
C382        C383   1.400   1_556  A
C382        C621   1.476       .  S
C383        H386   1.084       .  S
O387       Cr405   1.998       .  S
O387        C395   1.264       .  A
O388       Cr405   1.977       .  S
O388        C389   1.262       .  A
C389        C693   1.482       .  S
C389        O390   1.267       .  A
O390       Cr406   2.010       .  S
O391       Cr406   1.976       .  S
O391        C392   1.258       .  A
C392        C669   1.473       .  S
C392        O393   1.262       .  A
O393       Cr407   2.001       .  S
O394       Cr407   1.985       .  S
O394        C395   1.262       .  A
C395        C573   1.481       .  S
O396       Cr405   1.980       .  S
O396        C404   1.260       .  A
O397       Cr405   1.990       .  S
O397        C398   1.261       .  A
C398        C630   1.478       .  S
C398        O399   1.259       .  A
O399       Cr406   1.978       .  S
O400       Cr406   2.007       .  S
O400        C401   1.268       .  A
C401        C597   1.484       .  S
C401        O402   1.262       .  A
O402       Cr407   1.980       .  S
O403       Cr407   2.002       .  S
O403        C404   1.265       .  A
C404        C549   1.481       .  S
Cr405       O408   1.769       .  S
Cr406       O408   1.769       .  S
Cr407       O408   1.770       .  S
C409        C410   1.405       .  A
C409        C414   1.405       .  A
C409        C582   1.477       .  S
C410        C411   1.401       .  A
C410        H415   1.084       .  S
C411        C412   1.400       .  A
C411        C510   1.476       .  S
C412        C413   1.398       .  A
C412        H416   1.085       .  S
C413        C414   1.400       .  A
C413        C534   1.471       .  S
C414        H417   1.083       .  S
C418        C419   1.404       .  A
C418        C423   1.408       .  A
C418        C558   1.483       .  S
C419        C420   1.400       .  A
C419        H424   1.084       .  S
C420        C421   1.399       .  A
C420        C462   1.474       .  S
C421        C422   1.399       .  A
C421        H425   1.084       .  S
C422        C423   1.403       .  A
C422        C477   1.475       .  S
C423        H426   1.083       .  S
O427       Cr445   2.002       .  S
O427        C435   1.265   1_655  A
O428       Cr445   1.973       .  S
O428        C429   1.259       .  A
C429        C501   1.485       .  S
C429        O430   1.266       .  A
O430       Cr446   2.012   1_655  S
O431        C432   1.260       .  A
C432        C525   1.477       .  S
C432        O433   1.266       .  A
O433       Cr447   2.005       .  S
O434       Cr447   1.981       .  S
C435        C717   1.478       .  S
O436       Cr445   1.973       .  S
O437       Cr445   2.000       .  S
O437        C438   1.266   1_565  A
C438        C453   1.486       .  S
C438        O439   1.258       .  A
O439       Cr446   1.972   1_645  S
O440        C441   1.266       .  A
C441        C486   1.487       .  S
C441        O442   1.259       .  A
O442       Cr447   1.982   1_545  S
O443       Cr447   2.001       .  S
O443        C444   1.265   1_565  A
C444        C654   1.480       .  S
Cr447       O448   1.770       .  S
C449        C450   1.400       .  A
C449        C454   1.399       .  A
C449        H459   1.084       .  S
C450        C451   1.409       .  A
C450        C455   1.473       .  S
C451        C452   1.394       .  A
C451        S456   1.806       .  S
C452        C453   1.408       .  A
C452        H457   1.083       .  S
C453        C454   1.420       .  A
C454        S458   1.803       .  S
C455        C460   1.408       .  A
C455        C464   1.401       .  A
S456        H472   1.405       .  S
S458        H469   1.407       .  S
C460        C461   1.399       .  A
C460        S465   1.807       .  S
C461        C462   1.403       .  A
C461        H466   1.083       .  S
C462        C463   1.413       .  A
C463        C464   1.398       .  A
C463        S467   1.804       .  S
C464        H468   1.084       .  S
S465        H470   1.407       .  S
S467        H471   1.406       .  S
C473        C474   1.404       .  A
C473        C478   1.403       .  A
C473        H483   1.084       .  S
C474        C475   1.413       .  A
C474        C479   1.479       .  S
C475        C476   1.395       .  A
C475        S480   1.806       .  S
C476        C477   1.401       .  A
C476        H481   1.085       .  S
C477        C478   1.412       .  A
C478        S482   1.804       .  S
C479        C484   1.406       .  A
C479        C488   1.401       .  A
S480        H496   1.405       .  S
S482        H493   1.405       .  S
C484        C485   1.401       .  A
C484        S489   1.806       .  S
C485        C486   1.408       .  A
C485        H490   1.083       .  S
C486        C487   1.419       .  A
C487        C488   1.401       .  A
C487        S491   1.801       .  S
C488        H492   1.084       .  S
S489        H494   1.407       .  S
S491        H495   1.408       .  S
C497        C498   1.402       .  A
C497        C502   1.400       .  A
C497        H507   1.084       .  S
C498        C499   1.412       .  A
C498        C503   1.480       .  S
C499        C500   1.398       .  A
C499        S504   1.805       .  S
C500        C501   1.406       .  A
C500        H505   1.084       .  S
C501        C502   1.417       .  A
C502        S506   1.801       .  S
C503        C508   1.411       .  A
C503        C512   1.402       .  A
S504        H520   1.405       .  S
S506        H517   1.406       .  S
C508        C509   1.404       .  A
C508        S513   1.806       .  S
C509        C510   1.404       .  A
C509        H514   1.083       .  S
C510        C511   1.412       .  A
C511        C512   1.396       .  A
C511        S515   1.805       .  S
C512        H516   1.084       .  S
S513        H518   1.407       .  S
S515        H519   1.407       .  S
C521        C522   1.401       .  A
C521        C526   1.396       .  A
C521        H531   1.084       .  S
C522        C523   1.412       .  A
C522        C527   1.476       .  S
C523        C524   1.399       .  A
C523        S528   1.804       .  S
C524        C525   1.405       .  A
C524        H529   1.083       .  S
C525        C526   1.416       .  A
C526        S530   1.804       .  S
C527        C532   1.410       .  A
C527        C536   1.402       .  A
S528        H544   1.405       .  S
S530        H541   1.407       .  S
C532        C533   1.403       .  A
C532        S537   1.806       .  S
C533        C534   1.402       .  A
C533        H538   1.083       .  S
C534        C535   1.411       .  A
C535        C536   1.396       .  A
C535        S539   1.805       .  S
C536        H540   1.084       .  S
S537        H542   1.407       .  S
S539        H543   1.405       .  S
C545        C546   1.403       .  A
C545        C550   1.402       .  A
C545        H555   1.084       .  S
C546        C547   1.410       .  A
C546        C551   1.479       .  S
C547        C548   1.396       .  A
C547        S552   1.805       .  S
C548        C549   1.406       .  A
C548        H553   1.084       .  S
C549        C550   1.416       .  A
C550        S554   1.803       .  S
C551        C556   1.409       .  A
C551        C560   1.401       .  A
S552        H568   1.405       .  S
S554        H565   1.408       .  S
C556        C557   1.402       .  A
C556        S561   1.807       .  S
C557        C558   1.406       .  A
C557        H562   1.083       .  S
C558        C559   1.416       .  A
C559        C560   1.399       .  A
C559        S563   1.804       .  S
C560        H564   1.084       .  S
S561        H566   1.407       .  S
S563        H567   1.407       .  S
C569        C570   1.403       .  A
C569        C574   1.400       .  A
C569        H579   1.084       .  S
C570        C571   1.412       .  A
C570        C575   1.480       .  S
C571        C572   1.398       .  A
C571        S576   1.806       .  S
C572        C573   1.407       .  A
C572        H577   1.084       .  S
C573        C574   1.415       .  A
C574        S578   1.803       .  S
C575        C580   1.411       .  A
C575        C584   1.402       .  A
S576        H592   1.406       .  S
S578        H589   1.408       .  S
C580        C581   1.402       .  A
C580        S585   1.807       .  S
C581        C582   1.403       .  A
C581        H586   1.083       .  S
C582        C583   1.414       .  A
C583        C584   1.399       .  A
C583        S587   1.805       .  S
C584        H588   1.084       .  S
S585        H590   1.407       .  S
S587        H591   1.407       .  S
C593        C594   1.401       .  A
C593        C598   1.400       .  A
C593        H603   1.084       .  S
C594        C595   1.410       .  A
C594        C599   1.479       .  S
C595        C596   1.399       .  A
C595        S600   1.804       .  S
C596        C597   1.407       .  A
C596        H601   1.084       .  S
C597        C598   1.417       .  A
C598        S602   1.802       .  S
C599        C604   1.409       .  A
C599        C608   1.403       .  A
S600        H616   1.405       .  S
S602        H613   1.406       .  S
C604        C605   1.400       .  A
C604        S609   1.807       .  S
C605        C606   1.403       .  A
C605        H610   1.083       .  S
C606        C607   1.413       .  A
C607        C608   1.402       .  A
C607        S611   1.803       .  S
C608        H612   1.083       .  S
S609        H614   1.407   1_556  S
S611        H615   1.405       .  S
C617        C618   1.400       .  A
C617        C622   1.397       .  A
C617        H627   1.084   1_556  S
C618        C619   1.411       .  A
C618        C623   1.473       .  S
C619        C620   1.397       .  A
C619        S624   1.805       .  S
C620        C621   1.403       .  A
C620        H625   1.084       .  S
C621        C622   1.414       .  A
C622        S626   1.804   1_556  S
C623        C628   1.407       .  A
C623        C632   1.397       .  A
S624        H640   1.406       .  S
S626        H637   1.407       .  S
C628        C629   1.404       .  A
C628        S633   1.805       .  S
C629        C630   1.407       .  A
C629        H634   1.083       .  S
C630        C631   1.417       .  A
C631        C632   1.392       .  A
C631        S635   1.805       .  S
C632        H636   1.085       .  S
S633        H638   1.407       .  S
S635        H639   1.408       .  S
C641        C642   1.401       .  A
C641        C646   1.397       .  A
C641        H651   1.085       .  S
C642        C647   1.476       .  S
C643        C644   1.399       .  A
C643        S648   1.805       .  S
C644        H649   1.084       .  S
C645        C646   1.414       .  A
C646        S650   1.804       .  S
C647        C652   1.407       .  A
S650        H661   1.407       .  S
C652        C653   1.401       .  A
C652        S657   1.807       .  S
C653        C654   1.407       .  A
C653        H658   1.082   1_545  S
C655        C656   1.398       .  A
C655        S659   1.804       .  S
C656        H660   1.084       .  S
S657        H662   1.407       .  S
S659        H663   1.407       .  S
C665        C666   1.400       .  A
C665        C670   1.395       .  A
C665        H675   1.084       .  S
C666        C667   1.410       .  A
C666        C671   1.473       .  S
C667        C668   1.400       .  A
C667        S672   1.803       .  S
C668        C669   1.404       .  A
C668        H673   1.084       .  S
C669        C670   1.414       .  A
C670        S674   1.803       .  S
C671        C676   1.407       .  A
C671        C680   1.401       .  A
S672        H688   1.405       .  S
S674        H685   1.405       .  S
C676        C677   1.399       .  A
C676        S681   1.807       .  S
C677        C678   1.404       .  A
C677        H682   1.084       .  S
C678        C679   1.415   1_556  A
C679        C680   1.399   1_554  A
C679        S683   1.804       .  S
C680        H684   1.085   1_556  S
S681        H686   1.407       .  S
S683        H687   1.406       .  S
C689        C690   1.401       .  A
C689        C694   1.400       .  A
C689        H699   1.084       .  S
C690        C691   1.413       .  A
C690        C695   1.479       .  S
C691        C692   1.399       .  A
C691        S696   1.805       .  S
C692        C693   1.405       .  A
C692        H697   1.084       .  S
C693        C694   1.416       .  A
C694        S698   1.801       .  S
C695        C700   1.410       .  A
C695        C704   1.401       .  A
S696        H712   1.405       .  S
S698        H709   1.406       .  S
C700        C701   1.405       .  A
C700        S705   1.805       .  S
C701        C702   1.403       .  A
C701        H706   1.083       .  S
C702        C703   1.412   1_556  A
C703        C704   1.397   1_554  A
C703        S707   1.805       .  S
C704        H708   1.084   1_556  S
S705        H710   1.407       .  S
S707        H711   1.406       .  S
C713        C718   1.397       .  A
C713        H723   1.084       .  S
C714        C715   1.413       .  A
C714        C719   1.476       .  S
C715        C716   1.401       .  A
C715        S720   1.805       .  S
C716        H721   1.084       .  S
C717        C718   1.414   1_455  A
C718        S722   1.800       .  S
C719        C724   1.407       .  A
S720        H736   1.404       .  S
S722        H733   1.406       .  S
C724        C725   1.402       .  A
C724        S729   1.806       .  S
C725        H730   1.082       .  S
C726        C727   1.413   1_455  A
C727        C728   1.400       .  A
C727        S731   1.804       .  S
C728        H732   1.082       .  S
S729        H734   1.407       .  S
S731        H735   1.406       .  S
