geometry optimzed in LAMMPS
_audit_creation_date              2020-11-30 
_audit_creation_method            'lammps2cif' 
_symmetry_space_group_name_H-M    'P1' 
_symmetry_Int_Tables_number       1 
_symmetry_cell_setting            triclinic 
loop_ 
_symmetry_equiv_pos_as_xyz 
  x,y,z 
_cell_length_a                    61.38319964 
_cell_length_b                    61.4307263539228 
_cell_length_c                    61.38030379329412 
_cell_angle_alpha                 90.06584887135544 
_cell_angle_beta                  90.01764680766695 
_cell_angle_gamma                 89.96068232204674 
loop_ 
_atom_site_label 
_atom_site_type_symbol 
_atom_site_fract_x 
_atom_site_fract_y 
_atom_site_fract_z 
_atom_site_charge 
O1          O  0.15870747  0.12498279  0.35337503    -0.73100
O2          O  0.09353604  0.12425316  0.35618735    -0.74100
O3          O  0.12594063  0.15743928  0.35445219    -0.62700
O4          O  0.12651883  0.09189423  0.35537262    -0.71200
O5          O  0.12760347  0.09293239  0.39147183    -0.70700
O6          O  0.12700082  0.15800177  0.39056711    -0.62000
O7          O  0.09473015  0.12517092  0.39228225    -0.74500
O8          O  0.16005831  0.12577090  0.38941053    -0.73300
Cu9        Cu  0.12610179  0.12463320  0.35357515     1.04600
Cu10       Cu  0.12742123  0.12547866  0.39216790     1.04300
C11         C  0.16977821  0.12557345  0.37097404     0.93000
C12         C  0.08379248  0.12448139  0.37457950     0.92200
C13         C  0.12654982  0.16805840  0.37238369     0.84300
C14         C  0.12695126  0.08208340  0.37372994     0.90600
O15         O  0.09242166  0.87559015  0.39792759    -0.73100
O16         O  0.15779073  0.87538173  0.39694105    -0.74100
O17         O  0.12521213  0.90827178  0.39687040    -0.62700
O18         O  0.12527195  0.84293048  0.39803605    -0.71200
O19         O  0.12473875  0.84245256  0.36198437    -0.70700
O20         O  0.12425480  0.90740008  0.36076622    -0.62000
O21         O  0.15703117  0.87487622  0.36086998    -0.74500
O22         O  0.09198056  0.87464302  0.36183094    -0.73300
Cu23       Cu  0.12516897  0.87561085  0.39873065     1.04600
Cu24       Cu  0.12447426  0.87486439  0.36014079     1.04300
C25         C  0.08185065  0.87489272  0.37998754     0.93000
C26         C  0.16777446  0.87465432  0.37868237     0.92200
C27         C  0.12463529  0.91816470  0.37856894     0.84300
C28         C  0.12530517  0.83231124  0.38011057     0.90600
O29         O  0.87748937  0.15730744  0.35748580    -0.73100
O30         O  0.87651376  0.09222493  0.35773126    -0.74100
O31         O  0.84429677  0.12560213  0.35764775    -0.62700
O32         O  0.90964777  0.12441481  0.35796513    -0.71200
O33         O  0.90914782  0.12424466  0.39408713    -0.70700
O34         O  0.84412572  0.12554284  0.39379594    -0.62000
O35         O  0.87596117  0.09203477  0.39383793    -0.74500
O36         O  0.87716202  0.15773951  0.39351156    -0.73300
Cu37       Cu  0.87697537  0.12483130  0.35646622     1.04600
Cu38       Cu  0.87659937  0.12487559  0.39507582     1.04300
C39         C  0.87744456  0.16795390  0.37533551     0.93000
C40         C  0.87626409  0.08175698  0.37569555     0.92200
C41         C  0.83391815  0.12607222  0.37569288     0.84300
C42         C  0.91973224  0.12424731  0.37618863     0.90600
O43         O  0.90804175  0.87409229  0.36060910    -0.73100
O44         O  0.84264266  0.87400439  0.35896895    -0.74100
O45         O  0.87541566  0.90667675  0.35923906    -0.62700
O46         O  0.87507841  0.84145350  0.36005028    -0.71200
O47         O  0.87404433  0.84167530  0.39612400    -0.70700
O48         O  0.87485888  0.90685412  0.39530590    -0.62000
O49         O  0.84207377  0.87434184  0.39498657    -0.74500
O50         O  0.90692333  0.87399644  0.39672116    -0.73300
Cu51       Cu  0.87535211  0.87403606  0.35843360     1.04600
Cu52       Cu  0.87445937  0.87425649  0.39700717     1.04300
C53         C  0.91780343  0.87407540  0.37901902     0.93000
C54         C  0.83194866  0.87393714  0.37684811     0.92200
C55         C  0.87538984  0.91714173  0.37723969     0.84300
C56         C  0.87417859  0.83120845  0.37812703     0.90600
O57         O  0.10689802  0.40886821  0.37447017    -0.73100
O58         O  0.10582787  0.34345525  0.37123674    -0.74100
O59         O  0.10521472  0.37472745  0.40535051    -0.62700
O60         O  0.10742213  0.37790781  0.34023288    -0.71200
O61         O  0.14345766  0.37682084  0.34144761    -0.70700
O62         O  0.14132460  0.37463239  0.40643648    -0.62000
O63         O  0.14181333  0.34294669  0.37268657    -0.74500
O64         O  0.14300375  0.40808021  0.37503269    -0.73300
Cu65       Cu  0.10506222  0.37622297  0.37275571     1.04600
Cu66       Cu  0.14362375  0.37554638  0.37393259     1.04300
C67         C  0.12517491  0.41880354  0.37529241     0.93000
C68         C  0.12369288  0.33275194  0.37159325     0.92200
C69         C  0.12295980  0.37445297  0.41621897     0.84300
C70         C  0.12583024  0.37818364  0.33050928     0.90600
O71         O  0.14157192  0.33952493  0.62375153    -0.73100
O72         O  0.14164870  0.40491174  0.62375413    -0.74100
O73         O  0.14165507  0.37206996  0.65651537    -0.62700
O74         O  0.14181995  0.37197668  0.59113538    -0.71200
O75         O  0.10573618  0.37219308  0.59112942    -0.70700
O76         O  0.10562397  0.37209218  0.65670980    -0.62000
O77         O  0.10563188  0.40475546  0.62402786    -0.74500
O78         O  0.10551021  0.33963384  0.62376588    -0.73300
Cu79       Cu  0.14292354  0.37214217  0.62380438     1.04600
Cu80       Cu  0.10438429  0.37218782  0.62390181     1.04300
C81         C  0.12351315  0.32919491  0.62370116     0.93000
C82         C  0.12355996  0.41527109  0.62394939     0.92200
C83         C  0.12371677  0.37188266  0.66705530     0.84300
C84         C  0.12379535  0.37191620  0.58073748     0.90600
O85         O  0.10948747  0.59260232  0.37428915    -0.73100
O86         O  0.10633060  0.65772688  0.37666568    -0.74100
O87         O  0.10721256  0.62630956  0.34268378    -0.62700
O88         O  0.10863549  0.62384818  0.40796231    -0.71200
O89         O  0.14473662  0.62627103  0.40746149    -0.70700
O90         O  0.14337200  0.62685106  0.34237473    -0.62000
O91         O  0.14246882  0.65907750  0.37581220    -0.74500
O92         O  0.14557604  0.59405535  0.37468267    -0.73300
Cu93       Cu  0.10663000  0.62509186  0.37537822     1.04600
Cu94       Cu  0.14527987  0.62666632  0.37497391     1.04300
C95         C  0.12796788  0.58299648  0.37461194     0.93000
C96         C  0.12403052  0.66864092  0.37705390     0.92200
C97         C  0.12520113  0.62650342  0.33222448     0.84300
C98         C  0.12688236  0.62462651  0.41795974     0.90600
O99         O  0.10847224  0.62499703  0.65650758    -0.73100
O100        O  0.11067546  0.62145032  0.59162039    -0.74100
O101        O  0.10943042  0.59060257  0.62565467    -0.62700
O102        O  0.10966426  0.65581307  0.62224231    -0.71200
O103        O  0.14569623  0.65569947  0.62340620    -0.70700
O104        O  0.14552575  0.59029007  0.62721725    -0.62000
O105        O  0.14671679  0.62121151  0.59271791    -0.74500
O106        O  0.14450707  0.62484997  0.65774420    -0.73300
Cu107      Cu  0.10832695  0.62321112  0.62398086     1.04600
Cu108      Cu  0.14687793  0.62300910  0.62531698     1.04300
C109        C  0.12614713  0.62549543  0.66749320     0.93000
C110        C  0.12900724  0.62083932  0.58179856     0.92200
C111        C  0.12736842  0.58011291  0.62696694     0.84300
C112        C  0.12772568  0.66615532  0.62215640     0.90600
O113        O  0.62620027  0.10648427  0.34169270    -0.73100
O114        O  0.62912328  0.10503600  0.40701578    -0.74100
O115        O  0.59483685  0.10558363  0.37581101    -0.62700
O116        O  0.66018831  0.10597666  0.37303292    -0.71200
O117        O  0.65975011  0.14203333  0.37405637    -0.70700
O118        O  0.59479009  0.14164517  0.37625057    -0.62000
O119        O  0.62846335  0.14112868  0.40751361    -0.74500
O120        O  0.62614571  0.14253744  0.34264037    -0.73300
Cu121      Cu  0.62756613  0.10446993  0.37433147     1.04600
Cu122      Cu  0.62726413  0.14304604  0.37512272     1.04300
C123        C  0.62592809  0.12478309  0.33180761     0.93000
C124        C  0.62940203  0.12297360  0.41757419     0.92200
C125        C  0.58445093  0.12361724  0.37655996     0.84300
C126        C  0.67032187  0.12413744  0.37331202     0.90600
O127        O  0.62766322  0.14605599  0.59172899    -0.73100
O128        O  0.62488411  0.14637088  0.65723948    -0.74100
O129        O  0.65855443  0.14630873  0.62591342    -0.62700
O130        O  0.59350465  0.14654647  0.62319781    -0.71200
O131        O  0.59306307  0.11042469  0.62177561    -0.70700
O132        O  0.65829033  0.11028317  0.62700146    -0.62000
O133        O  0.62304429  0.11026983  0.65694298    -0.74500
O134        O  0.62817182  0.10996835  0.59210401    -0.73300
Cu135      Cu  0.62610785  0.14759591  0.62449542     1.04600
Cu136      Cu  0.62563658  0.10898589  0.62446584     1.04300
C137        C  0.62870258  0.12787481  0.58159934     0.93000
C138        C  0.62348229  0.12825517  0.66736760     0.92200
C139        C  0.66879326  0.12827231  0.62711756     0.84300
C140        C  0.58301554  0.12864336  0.62191668     0.90600
O141        O  0.37821501  0.14532874  0.34149895    -0.73100
O142        O  0.37583019  0.14414717  0.40691734    -0.74100
O143        O  0.40954125  0.14536397  0.37573312    -0.62700
O144        O  0.34438669  0.14431780  0.37293386    -0.71200
O145        O  0.34464603  0.10827237  0.37145328    -0.70700
O146        O  0.40999323  0.10927744  0.37543175    -0.62000
O147        O  0.37530038  0.10800844  0.40613407    -0.74500
O148        O  0.37941247  0.10924788  0.34086451    -0.73300
Cu149      Cu  0.37695298  0.14604252  0.37426768     1.04600
Cu150      Cu  0.37735882  0.10743916  0.37343949     1.04300
C151        C  0.37919647  0.12745830  0.33084026     0.93000
C152        C  0.37530780  0.12586844  0.41680535     0.92200
C153        C  0.42009396  0.12746446  0.37622109     0.84300
C154        C  0.33414502  0.12625064  0.37188907     0.90600
O155        O  0.34335807  0.14259186  0.62428269    -0.73100
O156        O  0.40854240  0.14502194  0.62263813    -0.74100
O157        O  0.37512835  0.14303707  0.59093390    -0.62700
O158        O  0.37674597  0.14443560  0.65613832    -0.71200
O159        O  0.37705666  0.10844126  0.65699158    -0.70700
O160        O  0.37729446  0.10704140  0.59151750    -0.62000
O161        O  0.40990123  0.10895167  0.62468739    -0.74500
O162        O  0.34442531  0.10657360  0.62425091    -0.73300
Cu163      Cu  0.37591468  0.14499625  0.62347601     1.04600
Cu164      Cu  0.37724153  0.10647243  0.62436197     1.04300
C165        C  0.33347709  0.12428615  0.62444410     0.93000
C166        C  0.41948581  0.12738279  0.62371324     0.92200
C167        C  0.37584463  0.12485755  0.58084404     0.84300
C168        C  0.37690478  0.12670841  0.66699150     0.90600
O169        O  0.85100291  0.65732975  0.37514307    -0.73100
O170        O  0.85320880  0.59231087  0.37686711    -0.74100
O171        O  0.85254640  0.62602026  0.40857571    -0.62700
O172        O  0.85178120  0.62383562  0.34320394    -0.71200
O173        O  0.88778273  0.62596376  0.34281957    -0.70700
O174        O  0.88872655  0.62560740  0.40826947    -0.62000
O175        O  0.88926343  0.59326285  0.37565571    -0.74500
O176        O  0.88715279  0.65833586  0.37618308    -0.73300
Cu177      Cu  0.85088000  0.62481681  0.37591111     1.04600
Cu178      Cu  0.88949966  0.62584022  0.37562884     1.04300
C179        C  0.86875838  0.66807421  0.37618859     0.93000
C180        C  0.87152096  0.58244402  0.37659856     0.92200
C181        C  0.87073714  0.62601511  0.41870110     0.84300
C182        C  0.86966094  0.62467766  0.33259720     0.90600
O183        O  0.85023092  0.65613180  0.62620994    -0.73100
O184        O  0.85190806  0.59089343  0.62460292    -0.74100
O185        O  0.85076116  0.62270401  0.65788259    -0.62700
O186        O  0.85132812  0.62419230  0.59265031    -0.71200
O187        O  0.88740781  0.62571569  0.59320516    -0.70700
O188        O  0.88679385  0.62261712  0.65852612    -0.62000
O189        O  0.88798128  0.59162190  0.62450924    -0.74500
O190        O  0.88633954  0.65662646  0.62766705    -0.73300
Cu191      Cu  0.84980582  0.62345697  0.62527732     1.04600
Cu192      Cu  0.88838794  0.62419006  0.62592170     1.04300
C193        C  0.86810813  0.66665275  0.62780927     0.93000
C194        C  0.87016202  0.58088842  0.62439674     0.92200
C195        C  0.86858216  0.62211223  0.66860923     0.84300
C196        C  0.86949468  0.62540101  0.58257708     0.90600
O197        O  0.89536592  0.37522202  0.34344030    -0.73100
O198        O  0.89565637  0.37581395  0.40859066    -0.74100
O199        O  0.89459920  0.34273610  0.37623185    -0.62700
O200        O  0.89641708  0.40806274  0.37581664    -0.71200
O201        O  0.86030427  0.40873176  0.37697562    -0.70700
O202        O  0.85857913  0.34352386  0.37530229    -0.62000
O203        O  0.85950227  0.37540293  0.40860305    -0.74500
O204        O  0.85934318  0.37691771  0.34339259    -0.73300
Cu205      Cu  0.89676503  0.37539321  0.37599139     1.04600
Cu206      Cu  0.85817556  0.37617359  0.37604389     1.04300
C207        C  0.87738934  0.37631241  0.33302626     0.93000
C208        C  0.87758673  0.37571536  0.41889332     0.92200
C209        C  0.87634699  0.33270513  0.37583924     0.84300
C210        C  0.87856126  0.41871804  0.37665036     0.90600
O211        O  0.85671822  0.37337341  0.59343013    -0.73100
O212        O  0.85717521  0.37422833  0.65853657    -0.74100
O213        O  0.85653268  0.40633585  0.62579801    -0.62700
O214        O  0.85733783  0.34107326  0.62662461    -0.71200
O215        O  0.89344371  0.34126477  0.62595592    -0.70700
O216        O  0.89266960  0.40653478  0.62539460    -0.62000
O217        O  0.89321551  0.37427243  0.65828098    -0.74500
O218        O  0.89280971  0.37371428  0.59316894    -0.73300
Cu219      Cu  0.85568383  0.37370286  0.62607007     1.04600
Cu220      Cu  0.89428970  0.37393983  0.62568511     1.04300
C221        C  0.87468614  0.37370934  0.58293841     0.93000
C222        C  0.87527622  0.37450138  0.66880165     0.92200
C223        C  0.87453684  0.41675234  0.62551801     0.84300
C224        C  0.87545533  0.33083463  0.62664447     0.90600
O225        O  0.34194878  0.89238016  0.37447022    -0.73100
O226        O  0.40711038  0.89364513  0.37394256    -0.74100
O227        O  0.37441792  0.89306922  0.34164782    -0.62700
O228        O  0.37474870  0.89306290  0.40671282    -0.71200
O229        O  0.37579132  0.85699696  0.40680888    -0.70700
O230        O  0.37467374  0.85706703  0.34160970    -0.62000
O231        O  0.40782618  0.85756995  0.37348613    -0.74500
O232        O  0.34249948  0.85636096  0.37473560    -0.73300
Cu233      Cu  0.37451156  0.89427565  0.37419665     1.04600
Cu234      Cu  0.37520522  0.85573111  0.37416452     1.04300
C235        C  0.33181620  0.87423000  0.37470364     0.93000
C236        C  0.41781505  0.87581572  0.37355511     0.92200
C237        C  0.37465441  0.87505931  0.33122430     0.84300
C238        C  0.37532839  0.87508615  0.41710791     0.90600
O239        O  0.34395059  0.89334100  0.62267772    -0.73100
O240        O  0.40903500  0.89443854  0.62459308    -0.74100
O241        O  0.37752343  0.89287372  0.59089308    -0.62700
O242        O  0.37518097  0.89481846  0.65605461    -0.71200
O243        O  0.37597846  0.85884900  0.65713410    -0.70700
O244        O  0.37757227  0.85680032  0.59193340    -0.62000
O245        O  0.40982246  0.85839809  0.62514983    -0.74500
O246        O  0.34440704  0.85733643  0.62398207    -0.73300
Cu247      Cu  0.37645834  0.89509922  0.62347392     1.04600
Cu248      Cu  0.37703908  0.85657833  0.62455771     1.04300
C249        C  0.33378934  0.87523464  0.62344032     0.93000
C250        C  0.41980211  0.87666907  0.62523845     0.92200
C251        C  0.37761282  0.87451677  0.58108536     0.84300
C252        C  0.37462173  0.87715599  0.66697494     0.90600
O253        O  0.62951212  0.89975495  0.65660606    -0.73100
O254        O  0.62413487  0.89742103  0.59153341    -0.74100
O255        O  0.59416647  0.89707469  0.62661889    -0.62700
O256        O  0.65926663  0.90002428  0.62142518    -0.71200
O257        O  0.66063972  0.86406587  0.62250880    -0.70700
O258        O  0.59567995  0.86109267  0.62788400    -0.62000
O259        O  0.62531311  0.86136190  0.59262828    -0.74500
O260        O  0.63086788  0.86373628  0.65762585    -0.73300
Cu261      Cu  0.62669606  0.89982293  0.62401860     1.04600
Cu262      Cu  0.62820670  0.86132338  0.62520163     1.04300
C263        C  0.63112365  0.88209224  0.66743614     0.93000
C264        C  0.62375104  0.87903357  0.58178467     0.92200
C265        C  0.58455032  0.87865021  0.62787432     0.84300
C266        C  0.67035932  0.88243573  0.62134746     0.90600
O267        O  0.65771140  0.89183123  0.37464364    -0.73100
O268        O  0.59242694  0.89286718  0.37305190    -0.74100
O269        O  0.62399405  0.89302986  0.40658645    -0.62700
O270        O  0.62594011  0.89189954  0.34141109    -0.71200
O271        O  0.62575012  0.85584294  0.34183327    -0.70700
O272        O  0.62369747  0.85696693  0.40734438    -0.62000
O273        O  0.59219021  0.85678208  0.37375950    -0.74500
O274        O  0.65721640  0.85575062  0.37540231    -0.73300
Cu275      Cu  0.62507263  0.89365907  0.37393567     1.04600
Cu276      Cu  0.62470598  0.85507980  0.37462109     1.04300
C277        C  0.66779579  0.87362206  0.37483124     0.93000
C278        C  0.58197225  0.87488941  0.37332022     0.92200
C279        C  0.62316793  0.87524705  0.41732298     0.84300
C280        C  0.62621217  0.87374406  0.33124918     0.90600
O281        O  0.15919509  0.87226777  0.64385721    -0.73100
O282        O  0.09396979  0.87342171  0.64080358    -0.74100
O283        O  0.12605207  0.84019240  0.64123117    -0.62700
O284        O  0.12726556  0.90560549  0.64321732    -0.71200
O285        O  0.12864483  0.90622545  0.60716665    -0.70700
O286        O  0.12766042  0.84133749  0.60520296    -0.62000
O287        O  0.09556033  0.87411165  0.60479474    -0.74500
O288        O  0.16054964  0.87318707  0.60777841    -0.73300
Cu289      Cu  0.12655088  0.87286930  0.64356719     1.04600
Cu290      Cu  0.12816078  0.87379915  0.60502312     1.04300
C291        C  0.17018998  0.87232331  0.62619236     0.93000
C292        C  0.08437455  0.87357186  0.62231219     0.92200
C293        C  0.12657823  0.83040433  0.62282788     0.84300
C294        C  0.12829543  0.91628102  0.62538449     0.90600
O295        O  0.09390430  0.12191516  0.60333959    -0.73100
O296        O  0.15907762  0.12329213  0.60565568    -0.74100
O297        O  0.12728065  0.09025242  0.60474611    -0.62700
O298        O  0.12570181  0.15522287  0.60462654    -0.71200
O299        O  0.12445964  0.15549511  0.64075073    -0.70700
O300        O  0.12557381  0.09041237  0.64087012    -0.62000
O301        O  0.15806477  0.12374999  0.64179545    -0.74500
O302        O  0.09245372  0.12273816  0.63951384    -0.73300
Cu303      Cu  0.12655097  0.12267364  0.60335779     1.04600
Cu304      Cu  0.12513206  0.12305814  0.64203222     1.04300
C305        C  0.08294525  0.12227860  0.62099667     0.93000
C306        C  0.16889983  0.12382008  0.62398525     0.92200
C307        C  0.12667162  0.08006596  0.62283619     0.84300
C308        C  0.12451052  0.16564075  0.62262134     0.90600
O309        O  0.87509988  0.09101112  0.60640822    -0.73100
O310        O  0.87558062  0.15622045  0.60765639    -0.74100
O311        O  0.90793731  0.12335270  0.60616690    -0.62700
O312        O  0.84266744  0.12402435  0.60788013    -0.71200
O313        O  0.84366135  0.12321175  0.64396970    -0.70700
O314        O  0.90890646  0.12304267  0.64221307    -0.62000
O315        O  0.87625494  0.15587811  0.64368738    -0.74500
O316        O  0.87616732  0.09050705  0.64242645    -0.73300
Cu317      Cu  0.87527976  0.12367051  0.60578896     1.04600
Cu318      Cu  0.87628196  0.12313237  0.64433067     1.04300
C319        C  0.87568118  0.08034293  0.62426564     0.93000
C320        C  0.87581479  0.16647134  0.62576881     0.92200
C321        C  0.91882470  0.12319781  0.62391631     0.84300
C322        C  0.83281930  0.12366301  0.62621459     0.90600
O323        O  0.87561962  0.84149685  0.64275616    -0.73100
O324        O  0.87941480  0.90651009  0.63954134    -0.74100
O325        O  0.84482052  0.87601266  0.64107279    -0.62700
O326        O  0.91010709  0.87177017  0.64102131    -0.71200
O327        O  0.90968840  0.87127324  0.60485877    -0.70700
O328        O  0.84463284  0.87399654  0.60498498    -0.62000
O329        O  0.87812011  0.90505041  0.60342883    -0.74500
O330        O  0.87588882  0.83988001  0.60675270    -0.73300
Cu331      Cu  0.87749823  0.87401752  0.64236622     1.04600
Cu332      Cu  0.87710809  0.87244572  0.60375941     1.04300
C333        C  0.87540955  0.83028427  0.62521881     0.93000
C334        C  0.87890961  0.91607157  0.62106661     0.92200
C335        C  0.83442925  0.87574778  0.62301846     0.84300
C336        C  0.92017372  0.87087955  0.62282574     0.90600
O337        O  0.39586856  0.12618527  0.15473219    -0.73100
O338        O  0.39140640  0.12712759  0.08958907    -0.74100
O339        O  0.39351821  0.15913548  0.12251641    -0.62700
O340        O  0.39382734  0.09392498  0.12172393    -0.71200
O341        O  0.35769723  0.09372717  0.12349481    -0.70700
O342        O  0.35747347  0.15891499  0.12521721    -0.62000
O343        O  0.35527080  0.12685499  0.09193439    -0.74500
O344        O  0.35989864  0.12574964  0.15696703    -0.73300
Cu345      Cu  0.39492030  0.12658352  0.12205777     1.04600
Cu346      Cu  0.35633104  0.12630707  0.12451376     1.04300
C347        C  0.37854557  0.12601369  0.16625512     0.93000
C348        C  0.37266366  0.12706137  0.08055878     0.92200
C349        C  0.37544170  0.16933096  0.12406098     0.84300
C350        C  0.37580902  0.08354681  0.12233442     0.90600
O351        O  0.39192589  0.12362377  0.90718391    -0.73100
O352        O  0.39221361  0.12419867  0.84168145    -0.74100
O353        O  0.39426086  0.15644891  0.87463710    -0.62700
O354        O  0.39010270  0.09139559  0.87413468    -0.71200
O355        O  0.35404998  0.09366208  0.87418704    -0.70700
O356        O  0.35822561  0.15848358  0.87394362    -0.62000
O357        O  0.35616845  0.12587776  0.84165079    -0.74500
O358        O  0.35588127  0.12645555  0.90657997    -0.73300
Cu359      Cu  0.39342338  0.12381415  0.87443188     1.04600
Cu360      Cu  0.35486436  0.12618094  0.87411175     1.04300
C361        C  0.37372820  0.12527701  0.91717652     0.93000
C362        C  0.37415864  0.12505097  0.83129933     0.92200
C363        C  0.37682444  0.16779757  0.87415061     0.84300
C364        C  0.37142497  0.08222817  0.87392363     0.90600
O365        O  0.38533981  0.84285980  0.87494962    -0.73100
O366        O  0.38471524  0.90794979  0.87337228    -0.74100
O367        O  0.38522183  0.87621028  0.90673118    -0.62700
O368        O  0.38471453  0.87491529  0.84151361    -0.71200
O369        O  0.34859962  0.87468393  0.84187066    -0.70700
O370        O  0.34916626  0.87549544  0.90724748    -0.62000
O371        O  0.34860621  0.90789726  0.87415210    -0.74500
O372        O  0.34931206  0.84234164  0.87506523    -0.73300
Cu373      Cu  0.38622259  0.87548366  0.87413099     1.04600
Cu374      Cu  0.34764389  0.87509635  0.87458251     1.04300
C375        C  0.36748729  0.83216947  0.87545963     0.93000
C376        C  0.36665289  0.91825858  0.87336403     0.92200
C377        C  0.36735704  0.87598158  0.91737209     0.84300
C378        C  0.36655260  0.87473833  0.83133729     0.90600
O379        O  0.38709948  0.87475228  0.09139058    -0.73100
O380        O  0.38845460  0.87713400  0.15660587    -0.74100
O381        O  0.38752931  0.84343024  0.12519062    -0.62700
O382        O  0.38824634  0.90859007  0.12267720    -0.71200
O383        O  0.35224833  0.90907793  0.12385230    -0.70700
O384        O  0.35150769  0.84368060  0.12597642    -0.62000
O385        O  0.35241934  0.87743699  0.15735552    -0.74500
O386        O  0.35100284  0.87546348  0.09247339    -0.73300
Cu387      Cu  0.38909017  0.87596262  0.12396277     1.04600
Cu388      Cu  0.35055297  0.87642356  0.12494578     1.04300
C389        C  0.36871983  0.87499191  0.08161287     0.93000
C390        C  0.37062328  0.87753484  0.16736244     0.92200
C391        C  0.36948589  0.83313421  0.12601049     0.84300
C392        C  0.37035990  0.91925702  0.12272587     0.90600
O393        O  0.90842721  0.35406076  0.12564078    -0.73100
O394        O  0.84308799  0.35628760  0.12670903    -0.74100
O395        O  0.87527317  0.35404803  0.09384824    -0.62700
O396        O  0.87631638  0.35613912  0.15879345    -0.71200
O397        O  0.87744424  0.39213477  0.15816539    -0.70700
O398        O  0.87686818  0.39007974  0.09280374    -0.62000
O399        O  0.84444326  0.39226643  0.12576872    -0.74500
O400        O  0.90967044  0.39016300  0.12529303    -0.73300
Cu401      Cu  0.87572937  0.35390047  0.12632274     1.04600
Cu402      Cu  0.87712357  0.39243164  0.12546920     1.04300
C403        C  0.91934814  0.37175260  0.12518130     0.93000
C404        C  0.83335318  0.37466683  0.12623944     0.92200
C405        C  0.87600068  0.37172284  0.08298601     0.84300
C406        C  0.87714170  0.37430476  0.16887924     0.90600
O407        O  0.84114013  0.35559023  0.87578465    -0.73100
O408        O  0.90615596  0.35508475  0.87517677    -0.74100
O409        O  0.87399227  0.35475679  0.90814804    -0.62700
O410        O  0.87320539  0.35631624  0.84287056    -0.71200
O411        O  0.87337625  0.39235150  0.84379338    -0.70700
O412        O  0.87439091  0.39083916  0.90886156    -0.62000
O413        O  0.90677738  0.39118247  0.87562114    -0.74500
O414        O  0.84125757  0.39166476  0.87686262    -0.73300
Cu415      Cu  0.87363289  0.35419768  0.87546297     1.04600
Cu416      Cu  0.87397899  0.39278093  0.87632436     1.04300
C417        C  0.83085735  0.37364290  0.87653583     0.93000
C418        C  0.91680191  0.37292918  0.87513931     0.92200
C419        C  0.87416962  0.37261816  0.91885018     0.84300
C420        C  0.87293456  0.37461291  0.83296344     0.90600
O421        O  0.15948198  0.35900971  0.12608623    -0.73100
O422        O  0.09433447  0.35683952  0.12346226    -0.74100
O423        O  0.12825897  0.35668390  0.09221720    -0.62700
O424        O  0.12594393  0.35894413  0.15704337    -0.71200
O425        O  0.12527320  0.39493462  0.15606690    -0.70700
O426        O  0.12644752  0.39276035  0.09091003    -0.62000
O427        O  0.09327495  0.39284810  0.12262538    -0.74500
O428        O  0.15835241  0.39496231  0.12459866    -0.73300
Cu429      Cu  0.12701983  0.35662734  0.12471653     1.04600
Cu430      Cu  0.12577988  0.39514099  0.12347907     1.04300
C431        C  0.16929855  0.37735074  0.12606069     0.93000
C432        C  0.08342511  0.37455510  0.12262675     0.92200
C433        C  0.12735404  0.37432332  0.08129923     0.84300
C434        C  0.12593128  0.37721424  0.16693092     0.90600
O435        O  0.12401766  0.35200676  0.84181139    -0.73100
O436        O  0.12369390  0.35057134  0.90735697    -0.74100
O437        O  0.09125943  0.35035418  0.87426568    -0.62700
O438        O  0.15671531  0.35221668  0.87455936    -0.71200
O439        O  0.15593249  0.38820798  0.87425640    -0.70700
O440        O  0.09062935  0.38641175  0.87666683    -0.62000
O441        O  0.12453806  0.38670743  0.90803816    -0.74500
O442        O  0.12226091  0.38794462  0.84284467    -0.73300
Cu443      Cu  0.12397530  0.35001284  0.87451341     1.04600
Cu444      Cu  0.12328042  0.38855332  0.87550006     1.04300
C445        C  0.12300147  0.37027532  0.83188573     0.93000
C446        C  0.12433586  0.36846619  0.91797630     0.92200
C447        C  0.08064388  0.36819070  0.87562016     0.84300
C448        C  0.16675624  0.37043444  0.87387099     0.90600
O449        O  0.65150718  0.87777750  0.09275387    -0.73100
O450        O  0.64639492  0.87959254  0.15763316    -0.74100
O451        O  0.65035735  0.84608275  0.12616490    -0.62700
O452        O  0.64685047  0.91161493  0.12414993    -0.71200
O453        O  0.61086329  0.90947824  0.12256424    -0.70700
O454        O  0.61442751  0.84463751  0.12315838    -0.62000
O455        O  0.61046842  0.87710910  0.15550855    -0.74500
O456        O  0.61546755  0.87694738  0.09003733    -0.73300
Cu457      Cu  0.65002879  0.87887899  0.12526270     1.04600
Cu458      Cu  0.61156290  0.87699397  0.12267958     1.04300
C459        C  0.63430708  0.87705205  0.08111140     0.93000
C460        C  0.62784751  0.87819250  0.16695547     0.92200
C461        C  0.63277097  0.83500245  0.12503072     0.84300
C462        C  0.62818600  0.92089745  0.12331161     0.90600
O463        O  0.65347347  0.90605032  0.87514212    -0.73100
O464        O  0.65221281  0.84069003  0.87240914    -0.74100
O465        O  0.65205665  0.87516924  0.84131336    -0.62700
O466        O  0.65395244  0.87212305  0.90634271    -0.71200
O467        O  0.61786407  0.87260514  0.90739670    -0.70700
O468        O  0.61602726  0.87617946  0.84212992    -0.62000
O469        O  0.61615605  0.84170731  0.87324537    -0.74500
O470        O  0.61739406  0.90675005  0.87653865    -0.73300
Cu471      Cu  0.65417035  0.87342822  0.87375030     1.04600
Cu472      Cu  0.61560376  0.87427700  0.87483903     1.04300
C473        C  0.63563458  0.91672296  0.87613715     0.93000
C474        C  0.63388529  0.83080891  0.87262868     0.92200
C475        C  0.63384354  0.87673539  0.83136700     0.84300
C476        C  0.63621834  0.87200792  0.91721841     0.90600
O477        O  0.60739391  0.15563893  0.87479485    -0.73100
O478        O  0.60974156  0.09029517  0.87404715    -0.74100
O479        O  0.60833333  0.12264991  0.90694589    -0.62700
O480        O  0.60847377  0.12320907  0.84174575    -0.71200
O481        O  0.64458451  0.12357816  0.84165638    -0.70700
O482        O  0.64440406  0.12458267  0.90712486    -0.62000
O483        O  0.64579872  0.09163572  0.87474784    -0.74500
O484        O  0.64343727  0.15650140  0.87409567    -0.73300
Cu485      Cu  0.60721920  0.12290190  0.87436408     1.04600
Cu486      Cu  0.64579904  0.12412272  0.87440132     1.04300
C487        C  0.62519447  0.16644323  0.87458031     0.93000
C488        C  0.62818000  0.08061044  0.87430565     0.92200
C489        C  0.62630382  0.12363153  0.91737882     0.84300
C490        C  0.62649556  0.12324153  0.83133777     0.90600
O491        O  0.64406792  0.16089977  0.12407715    -0.73100
O492        O  0.64361261  0.09576516  0.12628484    -0.74100
O493        O  0.64469672  0.12700423  0.09251379    -0.62700
O494        O  0.64290870  0.12954259  0.15766041    -0.71200
O495        O  0.60689930  0.13029169  0.15661449    -0.70700
O496        O  0.60863369  0.12696562  0.09153759    -0.62000
O497        O  0.60753842  0.09589986  0.12561236    -0.74500
O498        O  0.60798010  0.16124620  0.12244810    -0.73300
Cu499      Cu  0.64506578  0.12829590  0.12515104     1.04600
Cu500      Cu  0.60650307  0.12859931  0.12401680     1.04300
C501        C  0.62612930  0.17141071  0.12310023     0.93000
C502        C  0.62555311  0.08545955  0.12637310     0.92200
C503        C  0.62695089  0.12651195  0.08166549     0.84300
C504        C  0.62460194  0.13040057  0.16753771     0.90600
O505        O  0.08921554  0.60536206  0.12547113    -0.73100
O506        O  0.15412164  0.60501329  0.12439505    -0.74100
O507        O  0.12203604  0.60477774  0.15778376    -0.62700
O508        O  0.12105358  0.60596604  0.09213568    -0.71200
O509        O  0.12072811  0.64202814  0.09313381    -0.70700
O510        O  0.12373469  0.64085779  0.15833024    -0.62000
O511        O  0.15473244  0.64100633  0.12418483    -0.74500
O512        O  0.08946641  0.64145672  0.12746787    -0.73300
Cu513      Cu  0.12160747  0.60402315  0.12492564     1.04600
Cu514      Cu  0.12214349  0.64259868  0.12579090     1.04300
C515        C  0.07907976  0.62343594  0.12685257     0.93000
C516        C  0.16483347  0.62279932  0.12387313     0.92200
C517        C  0.12307374  0.62268555  0.16837175     0.84300
C518        C  0.12084369  0.62428876  0.08225290     0.90600
O519        O  0.15491753  0.64396265  0.87389820    -0.73100
O520        O  0.08960009  0.64031533  0.87495968    -0.74100
O521        O  0.12276867  0.64242299  0.90715727    -0.62700
O522        O  0.12153938  0.64213159  0.84199645    -0.71200
O523        O  0.12366534  0.60614844  0.84173386    -0.70700
O524        O  0.12509761  0.60642721  0.90720305    -0.62000
O525        O  0.09189864  0.60429599  0.87524295    -0.74500
O526        O  0.15683979  0.60801139  0.87386719    -0.73300
Cu527      Cu  0.12215818  0.64346069  0.87450442     1.04600
Cu528      Cu  0.12445522  0.60497330  0.87450781     1.04300
C529        C  0.16629200  0.62652906  0.87380323     0.93000
C530        C  0.08044320  0.62163653  0.87528659     0.92200
C531        C  0.12414059  0.62446860  0.91755840     0.84300
C532        C  0.12219908  0.62421116  0.83149440     0.90600
O533        O  0.87216529  0.63338200  0.84235523    -0.73100
O534        O  0.87533141  0.63724582  0.90707798    -0.74100
O535        O  0.90626105  0.63478848  0.87345098    -0.62700
O536        O  0.84122378  0.63552355  0.87617141    -0.71200
O537        O  0.84085368  0.59944523  0.87714506    -0.70700
O538        O  0.90630346  0.59875195  0.87579890    -0.62000
O539        O  0.87420886  0.60121193  0.90931898    -0.74500
O540        O  0.87283208  0.59730112  0.84373487    -0.73300
Cu541      Cu  0.87377289  0.63643187  0.87466242     1.04600
Cu542      Cu  0.87355528  0.59786058  0.87657900     1.04300
C543        C  0.87202738  0.61494924  0.83273469     0.93000
C544        C  0.87502165  0.61991628  0.91849303     0.92200
C545        C  0.91660552  0.61678262  0.87461812     0.84300
C546        C  0.83069065  0.61760837  0.87684671     0.90600
O547        O  0.87521291  0.60925383  0.09191011    -0.73100
O548        O  0.87045250  0.60793706  0.15725137    -0.74100
O549        O  0.84021906  0.60931512  0.12201126    -0.62700
O550        O  0.90519123  0.60770511  0.12703557    -0.71200
O551        O  0.90596505  0.64382047  0.12659262    -0.70700
O552        O  0.84098764  0.64535604  0.12375673    -0.62000
O553        O  0.87204248  0.64395071  0.15781692    -0.74500
O554        O  0.87473990  0.64537106  0.09259558    -0.73300
Cu555      Cu  0.87272204  0.60727459  0.12451137     1.04600
Cu556      Cu  0.87346502  0.64586527  0.12522176     1.04300
C557        C  0.87556162  0.62751891  0.08195101     0.93000
C558        C  0.87073656  0.62583106  0.16792894     0.92200
C559        C  0.83030543  0.62759416  0.12217161     0.84300
C560        C  0.91584371  0.62553800  0.12755318     0.90600
O561        O  0.40976821  0.37466817  0.13921189    -0.73100
O562        O  0.34496151  0.37611640  0.14296525    -0.74100
O563        O  0.37695317  0.34297482  0.14092069    -0.62700
O564        O  0.37810690  0.40826124  0.14080882    -0.71200
O565        O  0.37534708  0.40820847  0.10477865    -0.70700
O566        O  0.37458321  0.34308513  0.10481272    -0.62000
O567        O  0.34248506  0.37604991  0.10696961    -0.74500
O568        O  0.40774620  0.37533417  0.10308047    -0.73300
Cu569      Cu  0.37748874  0.37554563  0.14222971     1.04600
Cu570      Cu  0.37497019  0.37567471  0.10363637     1.04300
C571        C  0.41899780  0.37468956  0.12060251     0.93000
C572        C  0.33338324  0.37609697  0.12570225     0.92200
C573        C  0.37580704  0.33276474  0.12281524     0.84300
C574        C  0.37693399  0.41856463  0.12275269     0.90600
O575        O  0.33893331  0.62405923  0.14264883    -0.73100
O576        O  0.40438853  0.62565267  0.14451057    -0.74100
O577        O  0.37051596  0.65774570  0.14468799    -0.62700
O578        O  0.37251816  0.59239037  0.14257880    -0.71200
O579        O  0.37381890  0.59379058  0.10654115    -0.70700
O580        O  0.37162257  0.65888536  0.10865710    -0.62000
O581        O  0.40530739  0.62736591  0.10841715    -0.74500
O582        O  0.34025826  0.62533343  0.10664273    -0.73300
Cu583      Cu  0.37157688  0.62495924  0.14489592     1.04600
Cu584      Cu  0.37278926  0.62639206  0.10634907     1.04300
C585        C  0.32921441  0.62442629  0.12422401     0.93000
C586        C  0.41517336  0.62649164  0.12670836     0.92200
C587        C  0.37054169  0.66869540  0.12699301     0.84300
C588        C  0.37354225  0.58273394  0.12415155     0.90600
O589        O  0.62288355  0.66129021  0.10969387    -0.73100
O590        O  0.62337452  0.59604744  0.10721234    -0.74100
O591        O  0.59047442  0.62828829  0.10846185    -0.62700
O592        O  0.65552509  0.62922691  0.10823232    -0.71200
O593        O  0.65600885  0.62822983  0.14424605    -0.70700
O594        O  0.59043031  0.62660677  0.14446604    -0.62000
O595        O  0.62426135  0.59478230  0.14332200    -0.74500
O596        O  0.62289424  0.66003196  0.14569073    -0.73300
Cu597      Cu  0.62300950  0.62874477  0.10718286     1.04600
Cu598      Cu  0.62332936  0.62735976  0.14570780     1.04300
C599        C  0.62333273  0.67107718  0.12808219     0.93000
C600        C  0.62409433  0.58510433  0.12488943     0.92200
C601        C  0.58002619  0.62705309  0.12638907     0.84300
C602        C  0.66617701  0.62921950  0.12611174     0.90600
O603        O  0.62558248  0.41151381  0.10520216    -0.73100
O604        O  0.62742295  0.34622315  0.10390324    -0.74100
O605        O  0.59355933  0.37775933  0.10416896    -0.62700
O606        O  0.65893778  0.38018577  0.10507791    -0.71200
O607        O  0.65833250  0.38010429  0.14114767    -0.70700
O608        O  0.59318657  0.37660537  0.14019787    -0.62000
O609        O  0.62721663  0.34562803  0.13999750    -0.74500
O610        O  0.62410231  0.41097278  0.14135923    -0.73300
Cu611      Cu  0.62634781  0.37892617  0.10333006     1.04600
Cu612      Cu  0.62568499  0.37828178  0.14192467     1.04300
C613        C  0.62492220  0.42149890  0.12344674     0.93000
C614        C  0.62762250  0.33555227  0.12176006     0.92200
C615        C  0.58296278  0.37669641  0.12208230     0.84300
C616        C  0.66899998  0.38099664  0.12329534     0.90600
O617        O  0.34070994  0.62492809  0.89368443    -0.73100
O618        O  0.40582785  0.62250856  0.89490492    -0.74100
O619        O  0.37427302  0.65659815  0.89531467    -0.62700
O620        O  0.37195238  0.59115490  0.89323710    -0.71200
O621        O  0.37376378  0.59219437  0.85713567    -0.70700
O622        O  0.37426175  0.65743934  0.85921913    -0.62000
O623        O  0.40644638  0.62464540  0.85880174    -0.74500
O624        O  0.34122273  0.62513802  0.85761093    -0.73300
Cu625      Cu  0.37317916  0.62376497  0.89555241     1.04600
Cu626      Cu  0.37393421  0.62488634  0.85694047     1.04300
C627        C  0.33058411  0.62511501  0.87551476     0.93000
C628        C  0.41641646  0.62335613  0.87701426     0.92200
C629        C  0.37457196  0.66739152  0.87750564     0.84300
C630        C  0.37268610  0.58137645  0.87486499     0.90600
O631        O  0.65567382  0.62353342  0.89760974    -0.73100
O632        O  0.59038505  0.62330390  0.89547139    -0.74100
O633        O  0.62325499  0.59074406  0.89643747    -0.62700
O634        O  0.62298087  0.65610961  0.89673593    -0.71200
O635        O  0.62418065  0.65614353  0.86073666    -0.70700
O636        O  0.62445552  0.59081764  0.86036420    -0.62000
O637        O  0.59149072  0.62337566  0.85942433    -0.74500
O638        O  0.65671764  0.62356610  0.86156992    -0.73300
Cu639      Cu  0.62298010  0.62342089  0.89781055     1.04600
Cu640      Cu  0.62419240  0.62349039  0.85927914     1.04300
C641        C  0.66659741  0.62343555  0.87989744     0.93000
C642        C  0.58053939  0.62326841  0.87711578     0.92200
C643        C  0.62426092  0.58041061  0.87837743     0.84300
C644        C  0.62395202  0.66656335  0.87878520     0.90600
O645        O  0.59137396  0.37328245  0.86088051    -0.73100
O646        O  0.65635272  0.37323577  0.86033256    -0.74100
O647        O  0.62367065  0.34078671  0.86027282    -0.62700
O648        O  0.62397776  0.40598995  0.86101501    -0.71200
O649        O  0.62535231  0.40562535  0.89712379    -0.70700
O650        O  0.62345890  0.34040885  0.89636971    -0.62000
O651        O  0.65699084  0.37222994  0.89640070    -0.74500
O652        O  0.59164892  0.37403162  0.89705363    -0.73300
Cu653      Cu  0.62384208  0.37334120  0.85938475     1.04600
Cu654      Cu  0.62436460  0.37304208  0.89801797     1.04300
C655        C  0.58123769  0.37369853  0.87902416     0.93000
C656        C  0.66703530  0.37279060  0.87817293     0.92200
C657        C  0.62320263  0.33024573  0.87818376     0.84300
C658        C  0.62502972  0.41613037  0.87918026     0.90600
O659        O  0.40786688  0.37539011  0.85648858    -0.73100
O660        O  0.34252510  0.37470546  0.85330431    -0.74100
O661        O  0.37469700  0.40749026  0.85591809    -0.62700
O662        O  0.37565799  0.34236325  0.85380916    -0.71200
O663        O  0.37453642  0.34136009  0.88986692    -0.70700
O664        O  0.37252179  0.40644624  0.89190883    -0.62000
O665        O  0.34089611  0.37312241  0.88926353    -0.74500
O666        O  0.40600370  0.37482112  0.89249173    -0.73300
Cu667      Cu  0.37524787  0.37500255  0.85362062     1.04600
Cu668      Cu  0.37342215  0.37387121  0.89211953     1.04300
C669        C  0.41732581  0.37530539  0.87505409     0.93000
C670        C  0.33128953  0.37396245  0.87079975     0.92200
C671        C  0.37338522  0.41733466  0.87422278     0.84300
C672        C  0.37539539  0.33151732  0.87153728     0.90600
C673        C  0.55727095  0.37406311  0.87903239    -0.20100
C674        C  0.54524860  0.36065978  0.86475902     0.36100
C675        C  0.52248573  0.36245744  0.86421576    -0.26000
C676        C  0.51155726  0.37717808  0.87783123     0.02600
C677        C  0.52353357  0.39029202  0.89241587     0.27400
C678        C  0.54633775  0.38848020  0.89297838    -0.25200
N679        N  0.55617354  0.34484821  0.85138229    -0.82600
H680        H  0.51314561  0.35205419  0.85342891     0.13200
C681        C  0.48747628  0.37787141  0.87721378     0.02600
N682        N  0.51249122  0.40553290  0.90635909    -0.81100
H683        H  0.55566110  0.39874394  0.90391060     0.18000
C684        C  0.47578794  0.37220655  0.89593631    -0.26000
C685        C  0.45295236  0.37104307  0.89570420     0.36100
C686        C  0.44150469  0.37598002  0.87626119    -0.20000
C687        C  0.45337632  0.38187657  0.85756654    -0.25200
C688        C  0.47622517  0.38293901  0.85787417     0.27400
H689        H  0.48461216  0.36805826  0.91065647     0.13200
N690        N  0.44151786  0.36442413  0.91503278    -0.82500
H691        H  0.44482117  0.38585157  0.84265264     0.18000
N692        N  0.48808585  0.38917882  0.83867266    -0.81100
H693        H  0.45234841  0.36208231  0.92797344     0.33700
H694        H  0.43448491  0.34925361  0.91183161     0.38200
H695        H  0.47740712  0.39229769  0.82577105     0.33600
H696        H  0.49603786  0.40383532  0.84209894     0.30300
H697        H  0.52366574  0.41386875  0.91615342     0.33600
H698        H  0.50507899  0.41717420  0.89639363     0.30300
H699        H  0.56315398  0.33341584  0.86187314     0.38200
H700        H  0.54497222  0.33636686  0.84173514     0.33700
C701        C  0.62518213  0.55626113  0.87846896    -0.20100
C702        C  0.63449569  0.54435024  0.86104738     0.36100
C703        C  0.63443289  0.52148818  0.86173497    -0.26000
C704        C  0.62555098  0.51027179  0.87950604     0.02600
C705        C  0.61672501  0.52206777  0.89712037     0.27400
C706        C  0.61670719  0.54493045  0.89645853    -0.25200
N707        N  0.64431379  0.55542338  0.84291230    -0.82600
H708        H  0.64151806  0.51230215  0.84841658     0.13200
C709        C  0.62543511  0.48613648  0.87929126     0.02600
N710        N  0.60754310  0.51076442  0.91544342    -0.81100
H711        H  0.60964128  0.55393339  0.90990243     0.18000
C712        C  0.63669963  0.47469759  0.89553497    -0.26000
C713        C  0.63706590  0.45182016  0.89570932     0.36100
C714        C  0.62571358  0.44019910  0.87937796    -0.20000
C715        C  0.61471589  0.45170839  0.86296929    -0.25200
C716        C  0.61431694  0.47456134  0.86285623     0.27400
H717        H  0.64546455  0.48369648  0.90794426     0.13200
N718        N  0.64927554  0.44040166  0.91211407    -0.82500
H719        H  0.60598719  0.44283103  0.85044892     0.18000
N720        N  0.60243327  0.48609831  0.84630210    -0.81100
H721        H  0.65657019  0.45135782  0.92291620     0.33700
H722        H  0.66196051  0.43214478  0.90426485     0.38200
H723        H  0.59521700  0.47520195  0.83537532     0.33600
H724        H  0.58972259  0.49446156  0.85396786     0.30300
H725        H  0.60182357  0.52181841  0.92708194     0.33600
H726        H  0.59398667  0.50209491  0.90987291     0.30300
H727        H  0.65791395  0.56381790  0.84880665     0.38200
H728        H  0.65013346  0.54425088  0.83143727     0.33700
C729        C  0.37214534  0.55736494  0.87418732    -0.20100
C730        C  0.38571068  0.54546297  0.85992413     0.36100
C731        C  0.38469759  0.52261917  0.85992469    -0.26000
C732        C  0.37040391  0.51151020  0.87384260     0.02600
C733        C  0.35665977  0.52339981  0.88789453     0.27400
C734        C  0.35785967  0.54623393  0.88810959    -0.25200
N735        N  0.40082665  0.55657367  0.84592773    -0.82600
H736        H  0.39537951  0.51338050  0.84932007     0.13200
C737        C  0.37050539  0.48739242  0.87395649     0.02600
N738        N  0.34144544  0.51221368  0.90171957    -0.81100
H739        H  0.34733261  0.55542549  0.89890843     0.18000
C740        C  0.37582118  0.47639041  0.89323622    -0.26000
C741        C  0.37699680  0.45356077  0.89386024     0.36100
C742        C  0.37260715  0.44146905  0.87469842    -0.20000
C743        C  0.36717782  0.45262404  0.85544898    -0.25200
C744        C  0.36595734  0.47542108  0.85491790     0.27400
H745        H  0.37949723  0.48573213  0.90776630     0.13200
N746        N  0.38297137  0.44277438  0.91376937    -0.82500
H747        H  0.36357373  0.44352782  0.84075401     0.18000
N748        N  0.35993547  0.48648686  0.83518387    -0.81100
H749        H  0.38506080  0.45404184  0.92637144     0.33700
H750        H  0.39815873  0.43545426  0.91127426     0.38200
H751        H  0.35719348  0.47532091  0.82260785     0.33600
H752        H  0.34510236  0.49436570  0.83802861     0.30300
H753        H  0.33251940  0.52332918  0.91105038     0.33600
H754        H  0.33026799  0.50422303  0.89164671     0.30300
H755        H  0.41221225  0.56444210  0.85586990     0.38200
H756        H  0.40954207  0.54542650  0.83643722     0.33700
C757        C  0.44039975  0.62329622  0.87726315    -0.20100
C758        C  0.45228271  0.60967305  0.89144434     0.36100
C759        C  0.47514656  0.61048035  0.89119640    -0.26000
C760        C  0.48623095  0.62459139  0.87707556     0.02600
C761        C  0.47434455  0.63824760  0.86297911     0.27400
C762        C  0.45151400  0.63727956  0.86304769    -0.25200
N763        N  0.44113325  0.59479990  0.90566129    -0.82600
H764        H  0.48441543  0.59989001  0.90184731     0.13200
C765        C  0.51033281  0.62467293  0.87706030     0.02600
N766        N  0.48552532  0.65320910  0.84888859    -0.81100
H767        H  0.44231278  0.64783448  0.85229880     0.18000
C768        C  0.52150800  0.61860604  0.85810293    -0.26000
C769        C  0.54438285  0.61779489  0.85761985     0.36100
C770        C  0.55633277  0.62340196  0.87657008    -0.20000
C771        C  0.54495268  0.62953346  0.89550600    -0.25200
C772        C  0.52211136  0.63036333  0.89589017     0.27400
H773        H  0.51227574  0.61411237  0.84373210     0.13200
N774        N  0.55536386  0.61098806  0.83807411    -0.82500
H775        H  0.55390078  0.63403661  0.91003965     0.18000
N776        N  0.51079145  0.63718031  0.91523940    -0.81100
H777        H  0.54417927  0.60803562  0.82557329     0.33700
H778        H  0.56294424  0.59609500  0.84137542     0.38200
H779        H  0.52183050  0.64076618  0.92771262     0.33600
H780        H  0.50265783  0.65169179  0.91161199     0.30300
H781        H  0.47438591  0.66207597  0.83953991     0.33600
H782        H  0.49364522  0.66446216  0.85876875     0.30300
H783        H  0.43298511  0.58347395  0.89587969     0.38200
H784        H  0.45229307  0.58599726  0.91504335     0.33700
C785        C  0.62493621  0.56107228  0.12409006    -0.20100
C786        C  0.61279364  0.54915766  0.10859252     0.36100
C787        C  0.61397039  0.52631194  0.10856792    -0.26000
C788        C  0.62697697  0.51524464  0.12369439     0.02600
C789        C  0.63931941  0.52706264  0.13899736     0.27400
C790        C  0.63808351  0.54991006  0.13912987    -0.25200
N791        N  0.59888830  0.56024699  0.09335875    -0.82600
H792        H  0.60444632  0.51702868  0.09695217     0.13200
C793        C  0.62656527  0.49119970  0.12403292     0.02600
N794        N  0.65296122  0.51578727  0.15433000    -0.81100
H795        H  0.64751634  0.55906490  0.15092049     0.18000
C796        C  0.64376062  0.47946701  0.11465435    -0.26000
C797        C  0.64349402  0.45658325  0.11435996     0.36100
C798        C  0.62577319  0.44542003  0.12378219    -0.20000
C799        C  0.60879769  0.45716153  0.13353099    -0.25200
C800        C  0.60892109  0.48003908  0.13354147     0.27400
H801        H  0.65729288  0.48820523  0.10746094     0.13200
N802        N  0.66117261  0.44459133  0.10472147    -0.82500
H803        H  0.59526481  0.44845369  0.14076299     0.18000
N804        N  0.59113643  0.49205448  0.14292327    -0.81100
H805        H  0.67289436  0.45523050  0.09845444     0.33700
H806        H  0.66878937  0.43574499  0.11711440     0.38200
H807        H  0.57929825  0.48143543  0.14899260     0.33600
H808        H  0.59721542  0.50072473  0.15626183     0.30300
H809        H  0.66114802  0.52687901  0.16434214     0.33600
H810        H  0.64283632  0.50663961  0.16449121     0.30300
H811        H  0.58656202  0.56789574  0.10227575     0.38200
H812        H  0.59120077  0.54909266  0.08301080     0.33700
C813        C  0.43925328  0.62635440  0.12708935    -0.20100
C814        C  0.45097750  0.61330250  0.14193761     0.36100
C815        C  0.47387396  0.61358085  0.14154331    -0.26000
C816        C  0.48530241  0.62674496  0.12675488     0.02600
C817        C  0.47352606  0.63968634  0.11180737     0.27400
C818        C  0.45064099  0.63912517  0.11196477    -0.25200
N819        N  0.43962607  0.59944119  0.15699410    -0.82600
H820        H  0.48288900  0.60326667  0.15266338     0.13200
C821        C  0.50956875  0.62659110  0.12693810     0.02600
N822        N  0.48483954  0.65355787  0.09673171    -0.81100
H823        H  0.44161617  0.64907883  0.10051871     0.18000
C824        C  0.52088139  0.62207233  0.10760999    -0.26000
C825        C  0.54376905  0.62185114  0.10697595     0.36100
C826        C  0.55575951  0.62628866  0.12622812    -0.20000
C827        C  0.54434169  0.63035195  0.14567429    -0.25200
C828        C  0.52143852  0.63070054  0.14620580     0.27400
H829        H  0.51175203  0.61843454  0.09293914     0.13200
N830        N  0.55474177  0.61690460  0.08686943    -0.82500
H831        H  0.55330334  0.63373283  0.16050023     0.18000
N832        N  0.51018819  0.63554820  0.16617630    -0.81100
H833        H  0.54353428  0.61475351  0.07420553     0.33700
H834        H  0.56264927  0.60197069  0.08888133     0.38200
H835        H  0.52125751  0.63803185  0.17888756     0.33600
H836        H  0.50187019  0.65023964  0.16398977     0.30300
H837        H  0.47380313  0.66189222  0.08678926     0.33600
H838        H  0.49311471  0.66534566  0.10581929     0.30300
H839        H  0.43125767  0.58771996  0.14787994     0.38200
H840        H  0.45064810  0.59099466  0.16684184     0.33700
C841        C  0.55875072  0.37534749  0.12175244    -0.20100
C842        C  0.54604661  0.37839713  0.14080833     0.36100
C843        C  0.52328242  0.37657352  0.13957176    -0.26000
C844        C  0.51283317  0.37205657  0.11979502     0.02600
C845        C  0.52533131  0.36892937  0.10081487     0.27400
C846        C  0.54812986  0.37066034  0.10196370    -0.25200
N847        N  0.55612480  0.38371731  0.16128440    -0.82600
H848        H  0.51352551  0.37924835  0.15404552     0.13200
C849        C  0.48870760  0.37166523  0.11916274     0.02600
N850        N  0.51479480  0.36390967  0.08049818    -0.81100
H851        H  0.55763485  0.36813757  0.08731093     0.18000
C852        C  0.47765600  0.38660955  0.10585657    -0.26000
C853        C  0.45480736  0.38778080  0.10589995     0.36100
C854        C  0.44290219  0.37372659  0.11954671    -0.20000
C855        C  0.45391980  0.35876317  0.13282348    -0.25200
C856        C  0.47673546  0.35737476  0.13255354     0.27400
H857        H  0.48693966  0.39776020  0.09583344     0.13200
N858        N  0.44369061  0.40360583  0.09270390    -0.82500
H859        H  0.44465542  0.34796351  0.14324518     0.18000
N860        N  0.48781895  0.34151420  0.14573489    -0.81100
H861        H  0.45485182  0.41269754  0.08363309     0.33700
H862        H  0.43590037  0.41453359  0.10321620     0.38200
H863        H  0.47663029  0.33229286  0.15465233     0.33600
H864        H  0.49574249  0.33071939  0.13519889     0.30300
H865        H  0.52628364  0.36216935  0.06804304     0.33600
H866        H  0.50717334  0.34879613  0.08223892     0.30300
H867        H  0.56280263  0.39930150  0.15979367     0.38200
H868        H  0.54450429  0.38466274  0.17370152     0.33700
C869        C  0.37704567  0.44264682  0.12253541    -0.20100
C870        C  0.38838371  0.45480386  0.13844746     0.36100
C871        C  0.38714677  0.47762613  0.13810972    -0.26000
C872        C  0.37503354  0.48852863  0.12211048     0.02600
C873        C  0.36416267  0.47645900  0.10587227     0.27400
C874        C  0.36539019  0.45362697  0.10617860    -0.25200
N875        N  0.40141491  0.44399297  0.15462432    -0.82600
H876        H  0.39583947  0.48702925  0.15026823     0.13200
C877        C  0.37411412  0.51262978  0.12254617     0.02600
N878        N  0.35167542  0.48742972  0.08937366    -0.81100
H879        H  0.35674751  0.44434250  0.09389621     0.18000
C880        C  0.38220765  0.52442198  0.10478505    -0.26000
C881        C  0.38244180  0.54728735  0.10495212     0.36100
C882        C  0.37416285  0.55860498  0.12327492    -0.20000
C883        C  0.36607857  0.54667867  0.14105453    -0.25200
C884        C  0.36582375  0.52382289  0.14080363     0.27400
H885        H  0.38878483  0.51569525  0.09091156     0.13200
N886        N  0.39145688  0.55894716  0.08676893    -0.82500
H887        H  0.35957974  0.55520819  0.15508145     0.18000
N888        N  0.35700110  0.51189328  0.15890702    -0.81100
H889        H  0.39643358  0.54819105  0.07454372     0.33700
H890        H  0.40551086  0.56688115  0.09225194     0.38200
H891        H  0.35163026  0.52253115  0.17108580     0.33600
H892        H  0.34325695  0.50352460  0.15332903     0.30300
H893        H  0.34477089  0.47619178  0.07858975     0.33600
H894        H  0.33873654  0.49535843  0.09711585     0.30300
H895        H  0.41418215  0.43613262  0.14651332     0.38200
H896        H  0.40858557  0.45531230  0.16513710     0.33700
C897        C  0.69038181  0.63037093  0.12545089    -0.20100
C898        C  0.70333591  0.63086436  0.14456083     0.36100
C899        C  0.72612967  0.63081577  0.14266289    -0.26000
C900        C  0.73632196  0.63125126  0.12223290     0.02600
C901        C  0.72353517  0.63166136  0.10320208     0.27400
C902        C  0.70076694  0.63094566  0.10499516    -0.25200
N903        N  0.69349198  0.63147299  0.16580661    -0.82600
H904        H  0.73607723  0.63052547  0.15725021     0.13200
C905        C  0.76043541  0.63109309  0.12115497     0.02600
N906        N  0.73373121  0.63295177  0.08215210    -0.81100
H907        H  0.69111741  0.63094211  0.09022082     0.18000
C908        C  0.77106968  0.61454458  0.10949810    -0.26000
C909        C  0.79390962  0.61305777  0.10927899     0.36100
C910        C  0.80628591  0.62843301  0.12114984    -0.20000
C911        C  0.79558988  0.64533212  0.13224320    -0.25200
C912        C  0.77281915  0.64689870  0.13227475     0.27400
H913        H  0.76147586  0.60248764  0.10088504     0.13200
N914        N  0.80445704  0.59643508  0.09656809    -0.82500
H915        H  0.80504884  0.65727349  0.14116457     0.18000
N916        N  0.76218608  0.66448777  0.14352056    -0.81100
H917        H  0.79303902  0.58794800  0.08718639     0.33700
H918        H  0.81100484  0.58507344  0.10739679     0.38200
H919        H  0.77364152  0.67465496  0.15098983     0.33600
H920        H  0.75414150  0.67391359  0.13185670     0.30300
H921        H  0.72200985  0.63304657  0.06977577     0.33600
H922        H  0.74184301  0.64787789  0.08129474     0.30300
H923        H  0.68581613  0.64658840  0.16742990     0.38200
H924        H  0.70538240  0.63087879  0.17800116     0.33700
C925        C  0.80658085  0.61812405  0.87735807    -0.20100
C926        C  0.79384848  0.60105973  0.86854626     0.36100
C927        C  0.77100701  0.60246038  0.86949683    -0.26000
C928        C  0.76076141  0.62062795  0.87875509     0.02600
C929        C  0.77333852  0.63778742  0.88720467     0.27400
C930        C  0.79614188  0.63633943  0.88650942    -0.25200
N931        N  0.80407311  0.58267396  0.85823662    -0.82600
H932        H  0.76110453  0.58947142  0.86280263     0.13200
C933        C  0.73675350  0.62172525  0.87910066     0.02600
N934        N  0.76284505  0.65661700  0.89636682    -0.81100
H935        H  0.80581285  0.64949418  0.89320279     0.18000
C936        C  0.72566225  0.61734970  0.89851685    -0.26000
C937        C  0.70278092  0.61785070  0.89938335     0.36100
C938        C  0.69081026  0.62307940  0.88032742    -0.20000
C939        C  0.70219674  0.62781830  0.86099827    -0.25200
C940        C  0.72503328  0.62726794  0.86023764     0.27400
H941        H  0.73494073  0.61321983  0.91296028     0.13200
N942        N  0.69181644  0.61277818  0.91944094    -0.82500
H943        H  0.69328009  0.63208162  0.84637933     0.18000
N944        N  0.73642720  0.63231347  0.84041384    -0.81100
H945        H  0.70306411  0.61008378  0.93195061     0.33700
H946        H  0.68356206  0.59806910  0.91715146     0.38200
H947        H  0.72540954  0.63598475  0.82794800     0.33600
H948        H  0.74552639  0.64643149  0.84317232     0.30300
H949        H  0.77442698  0.66775588  0.90200223     0.33600
H950        H  0.75432995  0.66437508  0.88382410     0.30300
H951        H  0.81212689  0.58837266  0.84436283     0.38200
H952        H  0.79236343  0.57157029  0.85278381     0.33700
C953        C  0.87548242  0.62183802  0.94247755    -0.20100
C954        C  0.86303328  0.60794829  0.95587416     0.36100
C955        C  0.86332270  0.61104070  0.97854106    -0.26000
C956        C  0.87594573  0.62751406  0.98803249     0.02600
C957        C  0.88886237  0.64104765  0.97477374     0.27400
C958        C  0.88818811  0.63830641  0.95204792    -0.25200
N959        N  0.84996728  0.59095993  0.94644402    -0.82600
H960        H  0.85378604  0.60045666  0.98894351     0.13200
C961        C  0.87673174  0.62892937  0.01202876     0.02600
N962        N  0.90334840  0.65672811  0.98442836    -0.81100
H963        H  0.89799633  0.64875313  0.94175895     0.18000
C964        C  0.88936386  0.61365817  0.02330680    -0.26000
C965        C  0.88934754  0.61294248  0.04615714     0.36100
C966        C  0.87662856  0.62806778  0.05791820    -0.20000
C967        C  0.86422525  0.64360294  0.04658430    -0.25200
C968        C  0.86377999  0.64390493  0.02367977     0.27400
H969        H  0.89899162  0.60200907  0.01416565     0.13200
N970        N  0.90219479  0.59694532  0.05743365    -0.82500
H971        H  0.85419896  0.65497684  0.05563974     0.18000
N972        N  0.84933587  0.65842623  0.01230432    -0.81100
H973        H  0.91035155  0.58689084  0.04635482     0.33700
H974        H  0.91418616  0.60522844  0.06624939     0.38200
H975        H  0.84027887  0.66770686  0.02335720     0.33600
H976        H  0.85875687  0.66941902  0.00342788     0.30300
H977        H  0.91234257  0.66471609  0.97238874     0.33600
H978        H  0.89395979  0.66864896  0.99210165     0.30300
H979        H  0.83777066  0.59837262  0.93714331     0.38200
H980        H  0.84205971  0.58205542  0.95859854     0.33700
C981        C  0.19053127  0.62743534  0.87363307    -0.20100
C982        C  0.20226737  0.64730219  0.87471261     0.36100
C983        C  0.22516874  0.64689589  0.87403937    -0.26000
C984        C  0.23652223  0.62716916  0.87297431     0.02600
C985        C  0.22504554  0.60741244  0.87219194     0.27400
C986        C  0.20221424  0.60772377  0.87241267    -0.25200
N987        N  0.19108030  0.66776947  0.87676944    -0.82600
H988        H  0.23427080  0.66198578  0.87488233     0.13200
C989        C  0.26053928  0.62723272  0.87350021     0.02600
N990        N  0.23670564  0.58711616  0.87130021    -0.81100
H991        H  0.19355497  0.59238647  0.87166599     0.18000
C992        C  0.27110687  0.62064477  0.89257274    -0.26000
C993        C  0.29390740  0.61942955  0.89358796     0.36100
C994        C  0.30641159  0.62545357  0.87515213    -0.20000
C995        C  0.29562661  0.63200090  0.85600605    -0.25200
C996        C  0.27277966  0.63282615  0.85497872     0.27400
H997        H  0.26143532  0.61608547  0.90661546     0.13200
N998        N  0.30426407  0.61169094  0.91312180    -0.82500
H999        H  0.30502293  0.63653951  0.84178379     0.18000
N1000       N  0.26192318  0.63917525  0.83522296    -0.81100
H1001       H  0.29272163  0.60844426  0.92519951     0.33700
H1002       H  0.31168462  0.59680481  0.90939986     0.38200
H1003       H  0.27329092  0.64284955  0.82308750     0.33600
H1004       H  0.25306763  0.62574815  0.82963931     0.30300
H1005       H  0.22587005  0.57398802  0.87103635     0.33600
H1006       H  0.24523476  0.58667998  0.85656995     0.30300
H1007       H  0.18385220  0.66810791  0.89218040     0.38200
H1008       H  0.20213459  0.68072272  0.87644857     0.33700
C1009       C  0.94067333  0.61695782  0.87484398    -0.20100
C1010       C  0.95223955  0.63406119  0.88502327     0.36100
C1011       C  0.97506982  0.63414842  0.88431514    -0.26000
C1012       C  0.98654492  0.61740079  0.87393976     0.02600
C1013       C  0.97513140  0.60013006  0.86404082     0.27400
C1014       C  0.95222995  0.59998079  0.86472848    -0.25200
N1015       N  0.94078861  0.65104458  0.89640967    -0.82600
H1016       H  0.98403385  0.64721266  0.89210133     0.13200
C1017       C  0.01059133  0.61823025  0.87378608     0.02600
N1018       N  0.98686039  0.58303285  0.85314088    -0.81100
H1019       H  0.94336567  0.58685499  0.85693881     0.18000
C1020       C  0.02236621  0.60305938  0.88607860    -0.26000
C1021       C  0.04522824  0.60376153  0.88689129     0.36100
C1022       C  0.05642358  0.62013464  0.87520318    -0.20000
C1023       C  0.04450706  0.63546147  0.86312212    -0.25200
C1024       C  0.02168215  0.63455708  0.86215483     0.27400
H1025       H  0.01363035  0.59075511  0.89520898     0.13200
N1026       N  0.05695070  0.58850768  0.90024434    -0.82500
H1027       H  0.05306908  0.64796472  0.85409848     0.18000
N1028       N  0.00967056  0.65007031  0.84938008    -0.81100
H1029       H  0.04614390  0.57905652  0.90937066     0.33700
H1030       H  0.06497700  0.57768103  0.88982930     0.38200
H1031       H  0.02025334  0.66108402  0.84187542     0.33600
H1032       H  0.00187512  0.64151941  0.83687504     0.30300
H1033       H  0.97605440  0.57155539  0.84669895     0.33600
H1034       H  0.99500511  0.58998303  0.83990557     0.30300
H1035       H  0.93284729  0.64391146  0.90967517     0.38200
H1036       H  0.95171425  0.66240222  0.90285914     0.33700
C1037       C  0.18905098  0.62244565  0.12308217    -0.20100
C1038       C  0.20113629  0.60273724  0.12331489     0.36100
C1039       C  0.22398247  0.60355042  0.12369985    -0.26000
C1040       C  0.23503404  0.62344468  0.12338365     0.02600
C1041       C  0.22321058  0.64305168  0.12263330     0.27400
C1042       C  0.20036161  0.64237079  0.12251357    -0.25200
N1043       N  0.19035774  0.58196045  0.12318277    -0.82600
H1044       H  0.23330624  0.58856219  0.12398438     0.13200
C1045       C  0.25908828  0.62345519  0.12368240     0.02600
N1046       N  0.23449629  0.66355229  0.12222202    -0.81100
H1047       H  0.19139266  0.65755677  0.12217662     0.18000
C1048       C  0.27038285  0.63114422  0.10546547    -0.26000
C1049       C  0.29324161  0.63124142  0.10494568     0.36100
C1050       C  0.30505256  0.62379476  0.12334864    -0.20000
C1051       C  0.29354545  0.61604208  0.14157589    -0.25200
C1052       C  0.27067960  0.61574311  0.14189034     0.27400
H1053       H  0.26125391  0.63688819  0.09148612     0.13200
N1054       N  0.30432971  0.63931319  0.08597202    -0.82500
H1055       H  0.30240717  0.61017543  0.15566477     0.18000
N1056       N  0.25913772  0.60782405  0.16065749    -0.81100
H1057       H  0.29322489  0.64594314  0.07488690     0.33700
H1058       H  0.31133452  0.62593651  0.07809184     0.38200
H1059       H  0.27006169  0.60261399  0.17265035     0.33600
H1060       H  0.25047210  0.62089124  0.16730407     0.30300
H1061       H  0.22341904  0.67648069  0.12155357     0.33600
H1062       H  0.24292828  0.66511375  0.13693604     0.30300
H1063       H  0.18304390  0.58011277  0.10791234     0.38200
H1064       H  0.20165244  0.56927845  0.12458386     0.33700
C1065       C  0.05515000  0.62343962  0.12788580    -0.20100
C1066       C  0.04269625  0.60936575  0.11463117     0.36100
C1067       C  0.01990572  0.61001525  0.11601275    -0.26000
C1068       C  0.00949969  0.62425574  0.13046960     0.02600
C1069       C  0.02188079  0.63768257  0.14435838     0.27400
C1070       C  0.04468092  0.63739622  0.14266077    -0.25200
N1071       N  0.05320760  0.59482244  0.09955519    -0.82600
H1072       H  0.01015989  0.59961476  0.10558616     0.13200
C1073       C  0.98555468  0.62517204  0.13039790     0.02600
N1074       N  0.01131794  0.65092339  0.16056563    -0.81100
H1075       H  0.05435346  0.64776149  0.15318588     0.18000
C1076       C  0.97379070  0.60922117  0.14163129    -0.26000
C1077       C  0.95092320  0.60900701  0.14107228     0.36100
C1078       C  0.93979910  0.62513990  0.12901077    -0.20000
C1079       C  0.95169665  0.64110976  0.11784107    -0.25200
C1080       C  0.97452697  0.64110567  0.11814996     0.27400
H1081       H  0.98251853  0.59689235  0.15075904     0.13200
N1082       N  0.93900861  0.59265683  0.15283459    -0.82500
H1083       H  0.94314431  0.65327486  0.10833893     0.18000
N1084       N  0.98655316  0.65654708  0.10529821    -0.81100
H1085       H  0.94968057  0.58193472  0.16065411     0.33700
H1086       H  0.93017032  0.60053307  0.16509332     0.38200
H1087       H  0.97593570  0.66663967  0.09661855     0.33600
H1088       H  0.99521675  0.66666431  0.11587580     0.30300
H1089       H  0.02285430  0.65931149  0.16986135     0.33600
H1090       H  0.00201989  0.66273465  0.15260987     0.30300
H1091       H  0.06114554  0.60431897  0.08788421     0.38200
H1092       H  0.04167261  0.58547384  0.09119060     0.33700
C1093       C  0.12415148  0.62465371  0.94173847    -0.20100
C1094       C  0.13335626  0.60747704  0.95400195     0.36100
C1095       C  0.13189777  0.60791585  0.97685314    -0.26000
C1096       C  0.12162607  0.62518289  0.98775463     0.02600
C1097       C  0.11280469  0.64254215  0.97557725     0.27400
C1098       C  0.11430534  0.64217316  0.95273076    -0.25200
N1099       N  0.14444418  0.58983011  0.94329943    -0.82600
H1100       H  0.13906372  0.59483941  0.98628336     0.13200
C1101       C  0.12072417  0.62505324  0.01196116     0.02600
N1102       N  0.10205088  0.66028709  0.98645438    -0.81100
H1103       H  0.10723072  0.65539826  0.94344382     0.18000
C1104       C  0.13004934  0.64234639  0.02360211    -0.26000
C1105       C  0.13024187  0.64252689  0.04649916     0.36100
C1106       C  0.12087480  0.62494837  0.05806651    -0.20000
C1107       C  0.11155301  0.60762880  0.04635663    -0.25200
C1108       C  0.11117517  0.60761092  0.02344052     0.27400
H1109       H  0.13760672  0.65558361  0.01473482     0.13200
N1110       N  0.14038042  0.66025754  0.05796633    -0.82500
H1111       H  0.10421475  0.59420660  0.05512527     0.18000
N1112       N  0.10095718  0.59007366  0.01175643    -0.81100
H1113       H  0.14614749  0.67196505  0.04704921     0.33700
H1114       H  0.15402766  0.65403179  0.06604563     0.38200
H1115       H  0.09473114  0.57850790  0.02258221     0.33600
H1116       H  0.08763403  0.59654809  0.00335633     0.30300
H1117       H  0.09655069  0.67179294  0.97517077     0.33600
H1118       H  0.08822105  0.65401283  0.99413503     0.30300
H1119       H  0.15826859  0.59628439  0.93572467     0.38200
H1120       H  0.15003281  0.57846215  0.95466061     0.33700
C1121       C  0.62633633  0.19550705  0.12285869    -0.20100
C1122       C  0.64238291  0.20745721  0.13428290     0.36100
C1123       C  0.64207792  0.23030897  0.13346475    -0.26000
C1124       C  0.62598037  0.24139477  0.12172266     0.02600
C1125       C  0.60976036  0.22960143  0.11059959     0.27400
C1126       C  0.61009021  0.20672449  0.11126832    -0.25200
N1127       N  0.65860999  0.19640571  0.14706139    -0.82600
H1128       H  0.65431650  0.23958004  0.14218136     0.13200
C1129       C  0.62612801  0.26544982  0.12165013     0.02600
N1130       N  0.59309961  0.24093311  0.09867131    -0.81100
H1131       H  0.59772215  0.19760915  0.10257549     0.18000
C1132       C  0.63545467  0.27651656  0.10404156    -0.26000
C1133       C  0.63654533  0.29939612  0.10379783     0.36100
C1134       C  0.62777522  0.31137976  0.12145948    -0.20000
C1135       C  0.61856320  0.30010137  0.13912144    -0.25200
C1136       C  0.61760273  0.27725824  0.13934979     0.27400
H1137       H  0.64218835  0.26721821  0.09061963     0.13200
N1138       N  0.64689287  0.31040630  0.08592560    -0.82500
H1139       H  0.61175654  0.30914789  0.15267020     0.18000
N1140       N  0.60806455  0.26594609  0.15748205    -0.81100
H1141       H  0.65231641  0.29920685  0.07427414     0.33700
H1142       H  0.66078124  0.31813787  0.09203470     0.38200
H1143       H  0.60270295  0.27699931  0.16929575     0.33600
H1144       H  0.59422420  0.25783047  0.15178703     0.30300
H1145       H  0.58249555  0.22986602  0.09123483     0.33600
H1146       H  0.58381522  0.24976633  0.10989196     0.30300
H1147       H  0.65056309  0.18844262  0.15978771     0.38200
H1148       H  0.66921490  0.20757674  0.15430675     0.33700
C1149       C  0.62466250  0.19057664  0.87533767    -0.20100
C1150       C  0.64242083  0.20340032  0.86805934     0.36100
C1151       C  0.64106273  0.22615853  0.86936712    -0.26000
C1152       C  0.62260341  0.23633655  0.87795890     0.02600
C1153       C  0.60484452  0.22379771  0.88510962     0.27400
C1154       C  0.60599532  0.20100617  0.88363224    -0.25200
N1155       N  0.66154888  0.19345349  0.85888184    -0.82600
H1156       H  0.65451489  0.23608577  0.86372289     0.13200
C1157       C  0.62198638  0.26028232  0.87863985     0.02600
N1158       N  0.58565588  0.23428720  0.89351893    -0.81100
H1159       H  0.59234380  0.19135339  0.88924442     0.18000
C1160       C  0.61423813  0.27152418  0.86043009    -0.26000
C1161       C  0.61437689  0.29435728  0.85982377     0.36100
C1162       C  0.62243723  0.30613115  0.87797258    -0.20000
C1163       C  0.63008792  0.29466742  0.89627019    -0.25200
C1164       C  0.63010914  0.27181606  0.89669676     0.27400
H1165       H  0.60820725  0.26237879  0.84657402     0.13200
N1166       N  0.60632515  0.30550805  0.84087736    -0.82500
H1167       H  0.63648420  0.30354530  0.91012586     0.18000
N1168       N  0.63887918  0.26025487  0.91507523    -0.81100
H1169       H  0.60152461  0.29439165  0.82888430     0.33700
H1170       H  0.59229716  0.31394635  0.84548200     0.38200
H1171       H  0.64464611  0.27117036  0.92682523     0.33600
H1172       H  0.62615824  0.25162006  0.92233411     0.30300
H1173       H  0.57391414  0.22272093  0.89778175     0.33600
H1174       H  0.58997581  0.24231258  0.90789814     0.30300
H1175       H  0.67030501  0.18649195  0.87171561     0.38200
H1176       H  0.67181263  0.20525037  0.85216724     0.33700
C1177       C  0.62617557  0.12392178  0.94147908    -0.20100
C1178       C  0.60980556  0.11316465  0.95356171     0.36100
C1179       C  0.61018201  0.11423593  0.97640459    -0.26000
C1180       C  0.62652148  0.12578229  0.98740048     0.02600
C1181       C  0.64280637  0.13661694  0.97539794     0.27400
C1182       C  0.64259060  0.13539171  0.95254890    -0.25200
N1183       N  0.59313140  0.10083700  0.94266726    -0.82600
H1184       H  0.59785318  0.10575067  0.98574400     0.13200
C1185       C  0.62654712  0.12604348  0.01153000     0.02600
N1186       N  0.65931142  0.14900820  0.98647586    -0.81100
H1187       H  0.65504196  0.14381370  0.94331957     0.18000
C1188       C  0.64457400  0.11764928  0.02275521    -0.26000
C1189       C  0.64529221  0.11759332  0.04563450     0.36100
C1190       C  0.62735515  0.12592207  0.05752388    -0.20000
C1191       C  0.60914163  0.13389001  0.04614931    -0.25200
C1192       C  0.60862985  0.13421997  0.02330939     0.27400
H1193       H  0.65814893  0.11108146  0.01356514     0.13200
N1194       N  0.66386308  0.10852578  0.05666733    -0.82500
H1195       H  0.59535905  0.14032159  0.05511410     0.18000
N1196       N  0.59009950  0.14303690  0.01201072    -0.81100
H1197       H  0.67447773  0.10121854  0.04551722     0.33700
H1198       H  0.67253156  0.12145426  0.06355125     0.38200
H1199       H  0.57821707  0.14822547  0.02306556     0.33600
H1200       H  0.59531470  0.15688131  0.00361255     0.30300
H1201       H  0.67009432  0.15595662  0.97528417     0.33600
H1202       H  0.65156980  0.16190855  0.99446739     0.30300
H1203       H  0.60071651  0.08772902  0.93484783     0.38200
H1204       H  0.58226668  0.09415756  0.95393321     0.33700
C1205       C  0.63289382  0.80662438  0.87289352    -0.20100
C1206       C  0.65040149  0.79342005  0.86571743     0.36100
C1207       C  0.64865027  0.77061880  0.86717925    -0.26000
C1208       C  0.62977223  0.76078511  0.87542564     0.02600
C1209       C  0.61222695  0.77382935  0.88229267     0.27400
C1210       C  0.61397604  0.79657402  0.88102126    -0.25200
N1211       N  0.66973435  0.80308814  0.85674064    -0.82600
H1212       H  0.66200198  0.76041029  0.86176068     0.13200
C1213       C  0.62830366  0.73673755  0.87629022     0.02600
N1214       N  0.59266313  0.76387364  0.89042506    -0.81100
H1215       H  0.60049310  0.80650218  0.88660940     0.18000
C1216       C  0.62786963  0.72624086  0.89652844    -0.26000
C1217       C  0.62655653  0.70341461  0.89798195     0.36100
C1218       C  0.62519834  0.69082107  0.87861541    -0.20000
C1219       C  0.62544904  0.70161897  0.85838282    -0.25200
C1220       C  0.62698468  0.72437859  0.85704583     0.27400
H1221       H  0.62889114  0.73594401  0.91125195     0.13200
N1222       N  0.62677195  0.69316874  0.91903263    -0.82500
H1223       H  0.62441603  0.69230436  0.84342835     0.18000
N1224       N  0.62705885  0.73505765  0.83621389    -0.81100
H1225       H  0.62670860  0.70484503  0.93144761     0.33700
H1226       H  0.64154326  0.68481153  0.92047347     0.38200
H1227       H  0.62611106  0.72364866  0.82359488     0.33600
H1228       H  0.61295522  0.74456090  0.83524925     0.30300
H1229       H  0.58130286  0.77574233  0.89493065     0.33600
H1230       H  0.58566984  0.75506056  0.87763014     0.30300
H1231       H  0.66531366  0.81078311  0.84220274     0.38200
H1232       H  0.68110207  0.79110149  0.85259100     0.33700
C1233       C  0.63588891  0.94077537  0.87677048    -0.20100
C1234       C  0.65150047  0.95301795  0.86510864     0.36100
C1235       C  0.65012421  0.97583396  0.86517951    -0.26000
C1236       C  0.63384337  0.98664003  0.87700495     0.02600
C1237       C  0.61856512  0.97447865  0.88904565     0.27400
C1238       C  0.61956219  0.95165741  0.88855696    -0.25200
N1239       N  0.66809769  0.94232799  0.85248867    -0.82600
H1240       H  0.66169122  0.98528269  0.85579539     0.13200
C1241       C  0.63266636  0.01070691  0.87620167     0.02600
N1242       N  0.60217513  0.98538652  0.90175356    -0.81100
H1243       H  0.60765791  0.94230170  0.89760912     0.18000
C1244       C  0.61362489  0.02064310  0.86843899    -0.26000
C1245       C  0.61179574  0.04339574  0.86728458     0.36100
C1246       C  0.62937232  0.05650540  0.87435607    -0.20000
C1247       C  0.64858909  0.04643679  0.88173977    -0.25200
C1248       C  0.65039983  0.02369184  0.88278133     0.27400
H1249       H  0.60023009  0.01053225  0.86297031     0.13200
N1250       N  0.59232375  0.05311809  0.85862207    -0.82500
H1251       H  0.66216785  0.05634072  0.88711285     0.18000
N1252       N  0.67005720  0.01372087  0.89072371    -0.81100
H1253       H  0.58091017  0.04116755  0.85452011     0.33700
H1254       H  0.59653923  0.06092002  0.84408916     0.38200
H1255       H  0.68162034  0.02555732  0.89474447     0.33600
H1256       H  0.66622753  0.00555869  0.90515588     0.30300
H1257       H  0.59215030  0.97408852  0.90958892     0.33600
H1258       H  0.61014108  0.99414841  0.91400396     0.30300
H1259       H  0.67917295  0.93543257  0.86342501     0.38200
H1260       H  0.67696800  0.95367264  0.84342426     0.33700
C1261       C  0.63315999  0.81089054  0.12627298    -0.20100
C1262       C  0.65126753  0.79834037  0.11942733     0.36100
C1263       C  0.64999212  0.77547068  0.12015373    -0.26000
C1264       C  0.63119306  0.76502788  0.12777773     0.02600
C1265       C  0.61322688  0.77743899  0.13468348     0.27400
C1266       C  0.61440424  0.80020869  0.13392566    -0.25200
N1267       N  0.67051297  0.80869252  0.11104840    -0.82600
H1268       H  0.66366468  0.76570295  0.11472518     0.13200
C1269       C  0.63002908  0.74100918  0.12777827     0.02600
N1270       N  0.59375214  0.76679995  0.14215258    -0.81100
H1271       H  0.60049161  0.80967460  0.13927068     0.18000
C1272       C  0.63019817  0.72984096  0.14763656    -0.26000
C1273       C  0.62764877  0.70710730  0.14840248     0.36100
C1274       C  0.62501159  0.69527593  0.12869247    -0.20000
C1275       C  0.62502496  0.70673298  0.10882160    -0.25200
C1276       C  0.62740998  0.72943990  0.10819317     0.27400
H1277       H  0.63206713  0.73899962  0.16262447     0.13200
N1278       N  0.62788495  0.69617945  0.16910395    -0.82500
H1279       H  0.62310504  0.69798889  0.09361203     0.18000
N1280       N  0.62700568  0.74086711  0.08776404    -0.81100
H1281       H  0.63129481  0.70713879  0.18170101     0.33700
H1282       H  0.61212434  0.69042255  0.17197615     0.38200
H1283       H  0.62511556  0.72996221  0.07480779     0.33600
H1284       H  0.61322986  0.75088400  0.08772722     0.30300
H1285       H  0.58202070  0.77826623  0.14675113     0.33600
H1286       H  0.58721420  0.75817735  0.12899147     0.30300
H1287       H  0.67835519  0.81624772  0.12414276     0.38200
H1288       H  0.68145766  0.79707318  0.10509440     0.33700
C1289       C  0.62666384  0.94500256  0.12316437    -0.20100
C1290       C  0.60881608  0.95618359  0.13260268     0.36100
C1291       C  0.60880799  0.97905458  0.13301723    -0.26000
C1292       C  0.62570950  0.99106467  0.12346402     0.02600
C1293       C  0.64317839  0.97992258  0.11344466     0.27400
C1294       C  0.64364889  0.95705267  0.11375522    -0.25200
N1295       N  0.59111470  0.94440658  0.14240298    -0.82600
H1296       H  0.59555568  0.98759704  0.14096149     0.13200
C1297       C  0.62518107  0.01526778  0.12457790     0.02600
N1298       N  0.66029739  0.99188110  0.10287079    -0.81100
H1299       H  0.65720429  0.94856629  0.10627184     0.18000
C1300       C  0.64321616  0.02638960  0.13313302    -0.26000
C1301       C  0.64363506  0.04921717  0.13429746     0.36100
C1302       C  0.62547392  0.06129088  0.12682668    -0.20000
C1303       C  0.60712837  0.05009734  0.11893325    -0.25200
C1304       C  0.60685974  0.02726057  0.11752192     0.27400
H1305       H  0.65702782  0.01715477  0.13909360     0.13200
N1306       N  0.66237406  0.06007831  0.14321998    -0.82500
H1307       H  0.59315212  0.05921769  0.11319016     0.18000
N1308       N  0.58823264  0.01624637  0.10855649    -0.81100
H1309       H  0.67442016  0.04883770  0.14752256     0.33700
H1310       H  0.65749099  0.06772633  0.15764744     0.38200
H1311       H  0.57609416  0.02740616  0.10428224     0.33600
H1312       H  0.59318014  0.00863100  0.09414393     0.30300
H1313       H  0.67195185  0.98127805  0.09638822     0.33600
H1314       H  0.65338430  0.00017023  0.08970259     0.30300
H1315       H  0.58213614  0.93730675  0.12979154     0.38200
H1316       H  0.58040962  0.95508010  0.15026786     0.33700
C1317       C  0.63619509  0.87653697  0.05712844    -0.20100
C1318       C  0.65248772  0.86415181  0.04653843     0.36100
C1319       C  0.65349388  0.86412414  0.02363972    -0.26000
C1320       C  0.63849765  0.87610688  0.01126643     0.02600
C1321       C  0.62259402  0.88884401  0.02184921     0.27400
C1322       C  0.62144832  0.88874269  0.04468008    -0.25200
N1323       N  0.66748927  0.85118703  0.05901152    -0.82600
H1324       H  0.66560424  0.85428242  0.01537092     0.13200
C1325       C  0.63870166  0.87432092  0.98721440     0.02600
N1326       N  0.60769679  0.90182944  0.00928858    -0.81100
H1327       H  0.60916123  0.89845969  0.05283070     0.18000
C1328       C  0.62060314  0.86515050  0.97675017    -0.26000
C1329       C  0.61956450  0.86373553  0.95395293     0.36100
C1330       C  0.63705698  0.87176908  0.94133861    -0.20000
C1331       C  0.65544220  0.88045019  0.95192389    -0.25200
C1332       C  0.65635567  0.88198130  0.97475486     0.27400
H1333       H  0.60719773  0.85908949  0.98649438     0.13200
N1334       N  0.60088313  0.85406125  0.94365041    -0.82500
H1335       H  0.66886806  0.88670491  0.94234085     0.18000
N1336       N  0.67485787  0.89171311  0.98531204    -0.81100
H1337       H  0.58940504  0.84927874  0.95527058     0.33700
H1338       H  0.60611933  0.83985146  0.93583256     0.38200
H1339       H  0.68644730  0.89652734  0.97380233     0.33600
H1340       H  0.66948868  0.90590203  0.99305935     0.30300
H1341       H  0.59697778  0.91023841  0.01952104     0.33600
H1342       H  0.61683803  0.91360344  0.00108016     0.30300
H1343       H  0.65848835  0.83913265  0.06696209     0.38200
H1344       H  0.67842042  0.84310565  0.04872961     0.33700
C1345       C  0.30703452  0.37415314  0.86998868    -0.20100
C1346       C  0.29521204  0.37984800  0.85094260     0.36100
C1347       C  0.27228671  0.38020873  0.85157064    -0.26000
C1348       C  0.26099662  0.37478210  0.87060653     0.02600
C1349       C  0.27258552  0.36933126  0.88957449     0.27400
C1350       C  0.29543309  0.36906226  0.88909830    -0.25200
N1351       N  0.30634051  0.38550223  0.83113457    -0.82600
H1352       H  0.26312965  0.38439341  0.83706679     0.13200
C1353       C  0.23694205  0.37406272  0.87044224     0.02600
N1354       N  0.26101928  0.36395142  0.90920994    -0.81100
H1355       H  0.30419029  0.36474655  0.90379603     0.18000
C1356       C  0.22658725  0.35388848  0.86845082    -0.26000
C1357       C  0.20376729  0.35218566  0.86911651     0.36100
C1358       C  0.19100700  0.37117101  0.87243018    -0.20000
C1359       C  0.20163345  0.39144473  0.87415494    -0.25200
C1360       C  0.22445665  0.39306265  0.87312203     0.27400
H1361       H  0.23643296  0.33939562  0.86626727     0.13200
N1362       N  0.19367307  0.33125966  0.86629080    -0.82500
H1363       H  0.19215027  0.40613679  0.87649154     0.18000
N1364       N  0.23503509  0.41386900  0.87485267    -0.81100
H1365       H  0.20543686  0.31902044  0.86486720     0.33700
H1366       H  0.18533034  0.33158081  0.85143853     0.38200
H1367       H  0.22351664  0.42630182  0.87656111     0.33600
H1368       H  0.24429350  0.41382247  0.88915048     0.30300
H1369       H  0.27191770  0.36011205  0.92172350     0.33600
H1370       H  0.25258239  0.37787218  0.91423045     0.30300
H1371       H  0.31323948  0.37124005  0.82490403     0.38200
H1372       H  0.29526607  0.39088420  0.81935301     0.33700
C1373       C  0.30929961  0.37628725  0.12727092    -0.20100
C1374       C  0.29813736  0.36853315  0.14592546     0.36100
C1375       C  0.27527309  0.36888641  0.14625815    -0.26000
C1376       C  0.26340090  0.37681881  0.12849545     0.02600
C1377       C  0.27438641  0.38426978  0.10981536     0.27400
C1378       C  0.29721941  0.38399487  0.10941414    -0.25200
N1379       N  0.30987657  0.35975496  0.16419393    -0.82600
H1380       H  0.26661257  0.36306457  0.16048924     0.13200
C1381       C  0.23937665  0.37693762  0.12942694     0.02600
N1382       N  0.26225544  0.39186221  0.09126703    -0.81100
H1383       H  0.30561180  0.38986407  0.09505080     0.18000
C1384       C  0.22831439  0.39684033  0.12848492    -0.26000
C1385       C  0.20547428  0.39763825  0.12762561     0.36100
C1386       C  0.19345094  0.37791769  0.12776468    -0.20000
C1387       C  0.20475182  0.35805428  0.12969395    -0.25200
C1388       C  0.22756271  0.35736867  0.13044797     0.27400
H1389       H  0.23763080  0.41181614  0.12801514     0.13200
N1390       N  0.19466897  0.41838559  0.12654017    -0.82500
H1391       H  0.19581746  0.34286895  0.13025318     0.18000
N1392       N  0.23881058  0.33687410  0.13185396    -0.81100
H1393       H  0.20587280  0.43110154  0.12819365     0.33700
H1394       H  0.18808308  0.41987533  0.11090759     0.38200
H1395       H  0.22771942  0.32399225  0.13269173     0.33600
H1396       H  0.24760889  0.33478704  0.11741940     0.30300
H1397       H  0.27278537  0.39684846  0.07885092     0.33600
H1398       H  0.25341694  0.37867279  0.08511564     0.30300
H1399       H  0.31718420  0.37280360  0.17231812     0.38200
H1400       H  0.29914088  0.35274473  0.17539779     0.33700
C1401       C  0.12688162  0.37321394  0.05736288    -0.20100
C1402       C  0.11220722  0.38606935  0.04521118     0.36100
C1403       C  0.11178074  0.38403900  0.02243000    -0.26000
C1404       C  0.12565414  0.36940812  0.01174544     0.02600
C1405       C  0.14020273  0.35645689  0.02384146     0.27400
C1406       C  0.14061833  0.35842272  0.04662536    -0.25200
N1407       N  0.09753587  0.40076887  0.05607066    -0.82600
H1408       H  0.10064204  0.39389376  0.01292311     0.13200
C1409       C  0.12533226  0.36843453  0.98774893     0.02600
N1410       N  0.15452230  0.34150359  0.01288771    -0.81100
H1411       H  0.15178432  0.34851063  0.05604508     0.18000
C1412       C  0.14126456  0.37984790  0.97613773    -0.26000
C1413       C  0.14126667  0.37992026  0.95327922     0.36100
C1414       C  0.12509053  0.36818589  0.94194664    -0.20000
C1415       C  0.10930508  0.35647938  0.95359297    -0.25200
C1416       C  0.10916700  0.35664837  0.97650873     0.27400
H1417       H  0.15362443  0.38883227  0.98498671     0.13200
N1418       N  0.15770974  0.39168831  0.94149303    -0.82500
H1419       H  0.09684634  0.34759801  0.94478274     0.18000
N1420       N  0.09260753  0.34518793  0.98842605    -0.81100
H1421       H  0.16835051  0.39951743  0.95227727     0.33700
H1422       H  0.16701279  0.38033968  0.93286315     0.38200
H1423       H  0.08177488  0.33756388  0.97772584     0.33600
H1424       H  0.10026821  0.33281584  0.99727386     0.30300
H1425       H  0.16438955  0.33336910  0.02413707     0.33600
H1426       H  0.14484865  0.32965259  0.00540664     0.30300
H1427       H  0.08695364  0.39142821  0.06558803     0.38200
H1428       H  0.08784986  0.40901054  0.04474683     0.33700
C1429       C  0.80676248  0.37343656  0.87695889    -0.20100
C1430       C  0.79464698  0.39035450  0.88685573     0.36100
C1431       C  0.77182116  0.38923939  0.88692729    -0.26000
C1432       C  0.76096809  0.37159547  0.87746861     0.02600
C1433       C  0.77286968  0.35467897  0.86763826     0.27400
C1434       C  0.79570500  0.35573560  0.86750369    -0.25200
N1435       N  0.80548740  0.40835685  0.89715831    -0.82600
H1436       H  0.76238897  0.40213007  0.89446198     0.13200
C1437       C  0.73700933  0.37134262  0.87769233     0.02600
N1438       N  0.76168238  0.33665118  0.85772762    -0.81100
H1439       H  0.80489727  0.34276295  0.85982708     0.18000
C1440       C  0.72577768  0.37880987  0.85936086    -0.26000
C1441       C  0.70295363  0.37990110  0.85923212     0.36100
C1442       C  0.69117004  0.37278168  0.87774629    -0.20000
C1443       C  0.70264059  0.36539904  0.89616042    -0.25200
C1444       C  0.72549268  0.36461834  0.89629277     0.27400
H1445       H  0.73493230  0.38423820  0.84528201     0.13200
N1446       N  0.69182950  0.38865936  0.84057216    -0.82500
H1447       H  0.69377547  0.36000161  0.91042336     0.18000
N1448       N  0.73710164  0.35715981  0.91521622    -0.81100
H1449       H  0.70291644  0.39275808  0.82831045     0.33700
H1450       H  0.68439436  0.40319419  0.84542708     0.38200
H1451       H  0.72622012  0.35300833  0.92763952     0.33600
H1452       H  0.74530761  0.34286838  0.91092774     0.30300
H1453       H  0.77283722  0.32567466  0.85098284     0.33600
H1454       H  0.75346753  0.32828772  0.87005920     0.30300
H1455       H  0.81391387  0.40217669  0.91058205     0.38200
H1456       H  0.79415887  0.41949445  0.90331172     0.33700
C1457       C  0.94088910  0.37211704  0.87469329    -0.20100
C1458       C  0.95342860  0.38800738  0.86377856     0.36100
C1459       C  0.97627196  0.38613713  0.86364655    -0.26000
C1460       C  0.98670464  0.36876311  0.87414617     0.02600
C1461       C  0.97426936  0.35305233  0.88525411     0.27400
C1462       C  0.95146485  0.35476762  0.88520934    -0.25200
N1463       N  0.94297850  0.40575184  0.85264531    -0.82600
H1464       H  0.98603308  0.39826867  0.85536306     0.13200
C1465       C  0.01075633  0.36798088  0.87447798     0.02600
N1466       N  0.98486132  0.33592453  0.89720944    -0.81100
H1467       H  0.94189030  0.34269841  0.89379348     0.18000
C1468       C  0.02187307  0.38042027  0.89004617    -0.26000
C1469       C  0.04473553  0.38051519  0.89086179     0.36100
C1470       C  0.05661717  0.36781149  0.87583733    -0.20000
C1471       C  0.04546069  0.35511896  0.86041709    -0.25200
C1472       C  0.02256482  0.35533833  0.85935625     0.27400
H1473       H  0.01262744  0.39010754  0.90156181     0.13200
N1474       N  0.05594199  0.39326389  0.90700778    -0.82500
H1475       H  0.05466852  0.34556784  0.84875810     0.18000
N1476       N  0.01133894  0.34355632  0.84249078    -0.81100
H1477       H  0.04481898  0.40173390  0.91673986     0.33700
H1478       H  0.06418974  0.38247920  0.91729428     0.38200
H1479       H  0.02247259  0.33561564  0.83233650     0.33600
H1480       H  0.00200367  0.33139534  0.84982678     0.30300
H1481       H  0.97336239  0.32615320  0.90506506     0.33600
H1482       H  0.99289501  0.32587497  0.88606708     0.30300
H1483       H  0.93394910  0.39916872  0.83978083     0.38200
H1484       H  0.95456803  0.41606645  0.84565100     0.33700
C1485       C  0.80913801  0.37588965  0.12613121    -0.20100
C1486       C  0.79585522  0.35803089  0.12002670     0.36100
C1487       C  0.77312505  0.36070863  0.11914051    -0.26000
C1488       C  0.76330512  0.38066628  0.12433462     0.02600
C1489       C  0.77642101  0.39840687  0.13057839     0.27400
C1490       C  0.79913703  0.39581999  0.13147119    -0.25200
N1491       N  0.80534372  0.33740572  0.11426594    -0.82600
H1492       H  0.76291922  0.34705854  0.11455904     0.13200
C1493       C  0.73920760  0.38250361  0.12347240     0.02600
N1494       N  0.76662888  0.41905971  0.13568232    -0.81100
H1495       H  0.80909494  0.40957595  0.13624151     0.18000
C1496       C  0.72769392  0.38830199  0.14233132    -0.26000
C1497       C  0.70480296  0.38893584  0.14248768     0.36100
C1498       C  0.69315303  0.38270096  0.12356167    -0.20000
C1499       C  0.70481158  0.37778055  0.10445844    -0.25200
C1500       C  0.72768231  0.37790220  0.10415523     0.27400
H1501       H  0.73663680  0.39218099  0.15705505     0.13200
N1502       N  0.69346672  0.39603261  0.16172612    -0.82500
H1503       H  0.69608656  0.37353958  0.08971163     0.18000
N1504       N  0.73929799  0.37333982  0.08432940    -0.81100
H1505       H  0.70447021  0.39979259  0.17417494     0.33700
H1506       H  0.68544713  0.41055744  0.15785709     0.38200
H1507       H  0.72842745  0.37028584  0.07156255     0.33600
H1508       H  0.74792068  0.38738456  0.08010866     0.30300
H1509       H  0.77853134  0.43042160  0.14008463     0.33600
H1510       H  0.75928347  0.42491061  0.12148302     0.30300
H1511       H  0.81138841  0.33043367  0.12856670     0.38200
H1512       H  0.79341108  0.32670613  0.10848744     0.33700
C1513       C  0.94336769  0.37102120  0.12458671    -0.20100
C1514       C  0.95461492  0.35521292  0.11220346     0.36100
C1515       C  0.97751157  0.35531120  0.11199540    -0.26000
C1516       C  0.98925688  0.37082465  0.12394994     0.02600
C1517       C  0.97803723  0.38630778  0.13667145     0.27400
C1518       C  0.95517910  0.38648229  0.13657430    -0.25200
N1519       N  0.94277311  0.33947817  0.09952110    -0.82600
H1520       H  0.98626174  0.34350000  0.10220991     0.13200
C1521       C  0.01333295  0.37110835  0.12271839     0.02600
N1522       N  0.98996465  0.40160267  0.14980764    -0.81100
H1523       H  0.94652436  0.39845572  0.14624991     0.18000
C1524       C  0.02371278  0.38958399  0.11433230    -0.26000
C1525       C  0.04652174  0.39123282  0.11403563     0.36100
C1526       C  0.05925992  0.37373703  0.12204826    -0.20000
C1527       C  0.04871498  0.35493017  0.12975809    -0.25200
C1528       C  0.02588764  0.35351799  0.13034890     0.27400
H1529       H  0.01388856  0.40294232  0.10828035     0.13200
N1530       N  0.05661897  0.41045030  0.10529820    -0.82500
H1531       H  0.05830387  0.34145005  0.13588855     0.18000
N1532       N  0.01539614  0.33449159  0.13902487    -0.81100
H1533       H  0.04498215  0.42056973  0.09807799     0.33700
H1534       H  0.06294409  0.41928187  0.11842160     0.38200
H1535       H  0.02696238  0.32297816  0.14389310     0.33600
H1536       H  0.00698592  0.33919901  0.15307415     0.30300
H1537       H  0.97929418  0.41186741  0.15823959     0.33600
H1538       H  0.99848551  0.39272970  0.16158549     0.30300
H1539       H  0.93426991  0.34792895  0.08741949     0.38200
H1540       H  0.95349065  0.32895289  0.09148696     0.33700
C1541       C  0.87620858  0.37097037  0.05889492    -0.20100
C1542       C  0.86703416  0.35337045  0.04717441     0.36100
C1543       C  0.86793091  0.35339406  0.02431530    -0.26000
C1544       C  0.87771307  0.37058759  0.01295833     0.02600
C1545       C  0.88713830  0.38798177  0.02462543     0.27400
C1546       C  0.88610978  0.38808729  0.04745331    -0.25200
N1547       N  0.85640196  0.33581161  0.05841503    -0.82600
H1548       H  0.86046232  0.34021263  0.01525642     0.13200
C1549       C  0.87692959  0.37077030  0.98883249     0.02600
N1550       N  0.89780471  0.40540040  0.01320728    -0.81100
H1551       H  0.89339818  0.40146336  0.05636775     0.18000
C1552       C  0.86710939  0.38847105  0.97830386    -0.26000
C1553       C  0.86580905  0.38941507  0.95551682     0.36100
C1554       C  0.87443358  0.37213370  0.94295330    -0.20000
C1555       C  0.88385546  0.35418897  0.95355738    -0.25200
C1556       C  0.88542221  0.35343899  0.97637217     0.27400
H1557       H  0.86021404  0.40153631  0.98798110     0.13200
N1558       N  0.85543064  0.40766944  0.94518306    -0.82500
H1559       H  0.89056013  0.34095211  0.94398970     0.18000
N1560       N  0.89590971  0.33536299  0.98691826    -0.81100
H1561       H  0.85037722  0.41911069  0.95677630     0.33700
H1562       H  0.84132312  0.40188168  0.93766618     0.38200
H1563       H  0.90121581  0.32396204  0.97541840     0.33600
H1564       H  0.90985520  0.34130706  0.99468481     0.30300
H1565       H  0.90379722  0.41698589  0.02416710     0.33600
H1566       H  0.91131058  0.39879384  0.00519882     0.30300
H1567       H  0.84257547  0.34222172  0.06605527     0.38200
H1568       H  0.85085555  0.32408095  0.04738954     0.33700
C1569       C  0.36929487  0.80888345  0.12673422    -0.20100
C1570       C  0.38865498  0.79649563  0.12925185     0.36100
C1571       C  0.38756278  0.77366673  0.12872553    -0.26000
C1572       C  0.36765007  0.76288046  0.12627713     0.02600
C1573       C  0.34830664  0.77499014  0.12420124     0.27400
C1574       C  0.34930592  0.79785310  0.12444536    -0.25200
N1575       N  0.40934792  0.80696964  0.13249816    -0.82600
H1576       H  0.40232158  0.76413688  0.13052420     0.13200
C1577       C  0.36749919  0.73880494  0.12602046     0.02600
N1578       N  0.32779212  0.76400236  0.12165134    -0.81100
H1579       H  0.33437170  0.80706021  0.12255619     0.18000
C1580       C  0.35910197  0.72748385  0.14393437    -0.26000
C1581       C  0.36019681  0.70462579  0.14499342     0.36100
C1582       C  0.36946447  0.69287023  0.12739858    -0.20000
C1583       C  0.37745482  0.70440604  0.10929844    -0.25200
C1584       C  0.37668916  0.72722447  0.10850430     0.27400
H1585       H  0.35215020  0.73659603  0.15737301     0.13200
N1586       N  0.35162098  0.69346073  0.16368689    -0.82500
H1587       H  0.38458567  0.69559839  0.09575950     0.18000
N1588       N  0.38530966  0.73874831  0.09004648    -0.81100
H1589       H  0.34387464  0.70441888  0.17419235     0.33700
H1590       H  0.36485902  0.68722815  0.17239517     0.38200
H1591       H  0.39168784  0.72786047  0.07860241     0.33600
H1592       H  0.37232674  0.74675292  0.08245700     0.30300
H1593       H  0.31506890  0.77525880  0.12044718     0.33600
H1594       H  0.32826116  0.75557280  0.10684594     0.30300
H1595       H  0.40889116  0.81453912  0.14775575     0.38200
H1596       H  0.42191669  0.79548808  0.13323304     0.33700
C1597       C  0.36817624  0.80790598  0.87654326    -0.20100
C1598       C  0.34932667  0.79509416  0.88020685     0.36100
C1599       C  0.35109716  0.77223855  0.88048909    -0.26000
C1600       C  0.37131327  0.76183712  0.87803056     0.02600
C1601       C  0.39018354  0.77456219  0.87504939     0.27400
C1602       C  0.38838227  0.79733672  0.87406763    -0.25200
N1603       N  0.32850093  0.80518006  0.88386801    -0.82600
H1604       H  0.33661077  0.76243342  0.88276649     0.13200
C1605       C  0.37252302  0.73761314  0.87844546     0.02600
N1606       N  0.41116964  0.76429369  0.87326535    -0.81100
H1607       H  0.40298912  0.80686859  0.87148125     0.18000
C1608       C  0.38215261  0.72658807  0.86087573    -0.26000
C1609       C  0.38381964  0.70377233  0.86062652     0.36100
C1610       C  0.37488110  0.69156860  0.87797807    -0.20000
C1611       C  0.36555576  0.70262471  0.89573798    -0.25200
C1612       C  0.36440791  0.72550890  0.89621686     0.27400
H1613       H  0.38848202  0.73587915  0.84728568     0.13200
N1614       N  0.39485991  0.69301538  0.84297297    -0.82500
H1615       H  0.35887100  0.69337517  0.90918282     0.18000
N1616       N  0.35512635  0.73651157  0.91470265    -0.81100
H1617       H  0.40040558  0.70433594  0.83153957     0.33700
H1618       H  0.40872045  0.68549543  0.84942738     0.38200
H1619       H  0.34986431  0.72527940  0.92635311     0.33600
H1620       H  0.36749801  0.74565540  0.92200585     0.30300
H1621       H  0.42341044  0.77591474  0.87106792     0.33600
H1622       H  0.41440216  0.75658746  0.88809653     0.30300
H1623       H  0.32937111  0.81339523  0.89877673     0.38200
H1624       H  0.31632266  0.79342037  0.88562007     0.33700
C1625       C  0.36762503  0.87581324  0.94154031    -0.20100
C1626       C  0.38537993  0.88416769  0.95367511     0.36100
C1627       C  0.38474423  0.88337826  0.97651369    -0.26000
C1628       C  0.36707308  0.87407381  0.98752288     0.02600
C1629       C  0.34929683  0.86585296  0.97553601     0.27400
C1630       C  0.34966350  0.86700829  0.95268864    -0.25200
N1631       N  0.40374122  0.89394120  0.94293559    -0.82600
H1632       H  0.39816660  0.89004506  0.98585086     0.13200
C1633       C  0.36732304  0.87354576  0.01165326     0.02600
N1634       N  0.33108291  0.85616905  0.98660845    -0.81100
H1635       H  0.33602501  0.86054877  0.94353030     0.18000
C1636       C  0.35049168  0.88380529  0.02317694    -0.26000
C1637       C  0.35058335  0.88453644  0.04601897     0.26500
C1638       C  0.36794388  0.87474507  0.05756473    -0.20000
C1639       C  0.38483532  0.86454908  0.04599418    -0.25200
C1640       C  0.38458537  0.86363826  0.02314650     0.27400
H1641       H  0.33745371  0.89168282  0.01425646     0.13200
N1642       N  0.33338686  0.89562528  0.05744787    -0.82500
H1643       H  0.39808486  0.85692087  0.05482093     0.18000
N1644       N  0.40166308  0.85255282  0.01155039    -0.81100
H1645       H  0.32177535  0.90162937  0.04653239     0.33700
H1646       H  0.34024393  0.90916001  0.06519464     0.38200
H1647       H  0.41316807  0.84622345  0.02240365     0.33600
H1648       H  0.39465743  0.83925850  0.00354156     0.30300
H1649       H  0.31929836  0.85102679  0.97543162     0.33600
H1650       H  0.33672908  0.84220743  0.99453988     0.30300
H1651       H  0.41279074  0.88137301  0.93585646     0.38200
H1652       H  0.41411327  0.90128507  0.95428461     0.33700
C1653       C  0.37783998  0.19187864  0.87388661    -0.20100
C1654       C  0.39658743  0.20334019  0.86689491     0.36100
C1655       C  0.39636051  0.22621851  0.86695330    -0.26000
C1656       C  0.37771732  0.23770215  0.87332241     0.02600
C1657       C  0.35901593  0.22642096  0.88010367     0.27400
C1658       C  0.35927944  0.20362568  0.88040344    -0.25200
N1659       N  0.41553753  0.19184457  0.85929767    -0.82600
H1660       H  0.41059821  0.23517609  0.86162753     0.13200
C1661       C  0.37781110  0.26165072  0.87261226     0.02600
N1662       N  0.33979378  0.23821090  0.88646440    -0.81100
H1663       H  0.34487646  0.19500749  0.88582240     0.18000
C1664       C  0.36840612  0.27222672  0.85475453    -0.26000
C1665       C  0.36773081  0.29505783  0.85367632     0.36100
C1666       C  0.37639333  0.30743854  0.87111557    -0.20000
C1667       C  0.38578906  0.29662858  0.88898943    -0.25200
C1668       C  0.38661005  0.27383096  0.88988220     0.27400
H1669       H  0.36156898  0.26257736  0.84163585     0.13200
N1670       N  0.35762619  0.30555217  0.83534284    -0.82500
H1671       H  0.39255284  0.30601167  0.90232999     0.18000
N1672       N  0.39625637  0.26295892  0.90824270    -0.81100
H1673       H  0.35042920  0.29403994  0.82505262     0.33700
H1674       H  0.36999275  0.31284991  0.82621565     0.38200
H1675       H  0.40218007  0.27429450  0.91948650     0.33600
H1676       H  0.38393190  0.25428156  0.91615693     0.30300
H1677       H  0.32730950  0.22746746  0.89073669     0.33600
H1678       H  0.34357677  0.24709668  0.90050266     0.30300
H1679       H  0.41119656  0.18372197  0.84495528     0.38200
H1680       H  0.42790464  0.20275185  0.85508476     0.33700
C1681       C  0.37002194  0.05821260  0.87347256    -0.20100
C1682       C  0.35192100  0.04731467  0.86429537     0.36100
C1683       C  0.35122762  0.02447156  0.86468257    -0.26000
C1684       C  0.36832673  0.01234345  0.87373535     0.02600
C1685       C  0.38653844  0.02318417  0.88259668     0.27400
C1686       C  0.38722099  0.04600160  0.88230965    -0.25200
N1687       N  0.33458836  0.05939169  0.85416654    -0.82600
H1688       H  0.33748792  0.01602474  0.85750659     0.13200
C1689       C  0.36726335  0.98825811  0.87327960     0.02600
N1690       N  0.40418069  0.01095500  0.89197536    -0.81100
H1691       H  0.40112961  0.05429681  0.88933223     0.18000
C1692       C  0.38378757  0.97666174  0.86262430    -0.26000
C1693       C  0.38373527  0.95383763  0.86210467     0.36100
C1694       C  0.36674028  0.94233971  0.87254210    -0.20000
C1695       C  0.34984862  0.95400229  0.88267680    -0.25200
C1696       C  0.35002778  0.97687765  0.88330419     0.27400
H1697       H  0.39674362  0.98552199  0.85456799     0.13200
N1698       N  0.40072167  0.94234672  0.85076259    -0.82500
H1699       H  0.33679060  0.94523578  0.89065948     0.18000
N1700       N  0.33302333  0.98859086  0.89437891    -0.81100
H1701       H  0.41204669  0.95323109  0.84421342     0.33700
H1702       H  0.39355441  0.93428031  0.83757277     0.38200
H1703       H  0.32154507  0.97781496  0.90083910     0.33600
H1704       H  0.34009237  0.99669274  0.90759460     0.30300
H1705       H  0.41641804  0.02137477  0.89761255     0.33600
H1706       H  0.39809770  0.00276895  0.90559501     0.30300
H1707       H  0.34108316  0.06720276  0.84051270     0.38200
H1708       H  0.32247526  0.04888834  0.84840269     0.33700
C1709       C  0.37538392  0.19336152  0.12410863    -0.20100
C1710       C  0.35975384  0.20538008  0.13601005     0.36100
C1711       C  0.35995431  0.22821193  0.13490041    -0.26000
C1712       C  0.37556813  0.23911430  0.12238991     0.02600
C1713       C  0.39126736  0.22723271  0.11066098     0.27400
C1714       C  0.39112552  0.20442133  0.11175194    -0.25200
N1715       N  0.34406599  0.19441626  0.14948339    -0.82600
H1716       H  0.34809127  0.23759683  0.14401749     0.13200
C1717       C  0.37560260  0.26308747  0.12211057     0.02600
N1718       N  0.40720350  0.23842770  0.09768420    -0.81100
H1719       H  0.40307832  0.19522037  0.10256968     0.18000
C1720       C  0.39044315  0.27424625  0.13535358    -0.26000
C1721       C  0.39088658  0.29708045  0.13571034     0.36100
C1722       C  0.37605864  0.30881387  0.12264907    -0.20000
C1723       C  0.36145709  0.29758397  0.10910453    -0.25200
C1724       C  0.36104747  0.27472963  0.10876370     0.27400
H1725       H  0.40171987  0.26506868  0.14536632     0.13200
N1726       N  0.40659732  0.30839979  0.14889347    -0.82500
H1727       H  0.35018795  0.30667626  0.09900663     0.18000
N1728       N  0.34590099  0.26326042  0.09506784    -0.81100
H1729       H  0.41628546  0.29735412  0.15750076     0.33700
H1730       H  0.41702330  0.31676726  0.13835789     0.38200
H1731       H  0.33618748  0.27423902  0.08640141     0.33600
H1732       H  0.35492827  0.25458186  0.08351505     0.30300
H1733       H  0.41768833  0.22729907  0.09016131     0.33600
H1734       H  0.39891206  0.24648656  0.08518478     0.30300
H1735       H  0.35261234  0.18654822  0.16193411     0.38200
H1736       H  0.33373030  0.20565824  0.15705239     0.33700
C1737       C  0.37088566  0.94348738  0.12136228    -0.20100
C1738       C  0.35206681  0.95650439  0.12452041     0.36100
C1739       C  0.35390771  0.97929215  0.12393024    -0.26000
C1740       C  0.37383706  0.98950174  0.11948486     0.02600
C1741       C  0.39250325  0.97663128  0.11579112     0.27400
C1742       C  0.39087904  0.95384601  0.11699982    -0.25200
N1743       N  0.33118113  0.94673748  0.12858163    -0.82600
H1744       H  0.33963911  0.98922394  0.12700637     0.13200
C1745       C  0.37486528  0.01369352  0.11931338     0.02600
N1746       N  0.41300500  0.98674052  0.11071541    -0.81100
H1747       H  0.40537073  0.94414104  0.11430729     0.18000
C1748       C  0.38987611  0.02438160  0.13288403    -0.26000
C1749       C  0.39058860  0.04721515  0.13403116     0.36100
C1750       C  0.37582671  0.05956879  0.12150939    -0.20000
C1751       C  0.36078809  0.04895188  0.10798522    -0.25200
C1752       C  0.36037009  0.02613919  0.10648452     0.27400
H1753       H  0.40075281  0.01484763  0.14299312     0.13200
N1754       N  0.40581596  0.05788284  0.14828612    -0.82500
H1755       H  0.34960924  0.05853434  0.09824230     0.18000
N1756       N  0.34541572  0.01555496  0.09188299    -0.81100
H1757       H  0.41555627  0.04645105  0.15630649     0.33700
H1758       H  0.39684554  0.06594667  0.16032765     0.38200
H1759       H  0.33585017  0.02702675  0.08370195     0.33600
H1760       H  0.35462609  0.00751618  0.08001767     0.30300
H1761       H  0.42516844  0.97500369  0.10859347     0.33600
H1762       H  0.41124489  0.99469342  0.09576797     0.30300
H1763       H  0.32617752  0.93927760  0.11410225     0.38200
H1764       H  0.31948633  0.95864624  0.13199574     0.33700
C1765       C  0.37118239  0.12705265  0.05673355    -0.20100
C1766       C  0.36283503  0.10889796  0.04545008     0.36100
C1767       C  0.36318527  0.10882134  0.02257506    -0.26000
C1768       C  0.37125471  0.12674598  0.01100509     0.02600
C1769       C  0.37895529  0.14517425  0.02231999     0.27400
C1770       C  0.37905504  0.14505115  0.04518246    -0.25200
N1771       N  0.35485763  0.09034564  0.05726965    -0.82600
H1772       H  0.35720571  0.09478105  0.01370151     0.13200
C1773       C  0.37186621  0.12595512  0.98698915     0.02600
N1774       N  0.38680349  0.16378336  0.01051012    -0.81100
H1775       H  0.38533175  0.15897099  0.05404968     0.18000
C1776       C  0.35787954  0.13948345  0.97512234    -0.26000
C1777       C  0.35837052  0.13965607  0.95227748     0.36100
C1778       C  0.37316627  0.12594398  0.94117843    -0.20000
C1779       C  0.38729415  0.11251775  0.95311741    -0.25200
C1780       C  0.38668632  0.11229328  0.97599665     0.27400
H1781       H  0.34664412  0.15001417  0.98377008     0.13200
N1782       N  0.34418315  0.15395979  0.94032689    -0.82500
H1783       H  0.39858316  0.10197090  0.94456259     0.18000
N1784       N  0.40100975  0.09831166  0.98814834    -0.81100
H1785       H  0.33423855  0.16282360  0.95094429     0.33700
H1786       H  0.35396213  0.16529226  0.93221905     0.38200
H1787       H  0.41078267  0.08914870  0.97760611     0.33600
H1788       H  0.41151155  0.10822495  0.99716176     0.30300
H1789       H  0.39168614  0.17605448  0.02126702     0.33600
H1790       H  0.40070957  0.15897116  0.00192664     0.30300
H1791       H  0.34085500  0.09519305  0.06566182     0.38200
H1792       H  0.35001073  0.07806030  0.04650727     0.33700
C1793       C  0.87617771  0.05611944  0.62369069    -0.20100
C1794       C  0.87148917  0.04324637  0.64225382     0.36100
C1795       C  0.87227394  0.02045335  0.64058658    -0.26000
C1796       C  0.87815903  0.01014500  0.62107329     0.02600
C1797       C  0.88282117  0.02284395  0.60255501     0.27400
C1798       C  0.88155267  0.04564253  0.60399238    -0.25200
N1799       N  0.86563019  0.05316875  0.66265791    -0.82600
H1800       H  0.86841227  0.01058902  0.65469232     0.13200
C1801       C  0.87926027  0.98600705  0.62042373     0.02600
N1802       N  0.88911750  0.01254988  0.58246738    -0.81100
H1803       H  0.88524519  0.05527722  0.58969373     0.18000
C1804       C  0.86628580  0.97454085  0.60548960    -0.26000
C1805       C  0.86601928  0.95166119  0.60524274     0.36100
C1806       C  0.87907079  0.94008130  0.62023577    -0.20000
C1807       C  0.89207227  0.95155323  0.63510966    -0.25200
C1808       C  0.89250785  0.97439818  0.63519512     0.27400
H1809       H  0.85591584  0.98350116  0.59436858     0.13200
N1810       N  0.85205022  0.94019043  0.59033047    -0.82500
H1811       H  0.90213628  0.94262713  0.64653893     0.18000
N1812       N  0.90640400  0.98588816  0.65015109    -0.81100
H1813       H  0.84360280  0.95112811  0.58038158     0.33700
H1814       H  0.84031667  0.93198831  0.59954318     0.38200
H1815       H  0.91501077  0.97496377  0.65997786     0.33600
H1816       H  0.91798185  0.99431179  0.64095338     0.30300
H1817       H  0.89188919  0.02418379  0.57036243     0.33600
H1818       H  0.90398063  0.00467099  0.58515173     0.30300
H1819       H  0.87973414  0.06019345  0.66912027     0.38200
H1820       H  0.86077319  0.04136629  0.67391121     0.33700
C1821       C  0.05905297  0.12234565  0.61995123    -0.20100
C1822       C  0.04749581  0.10385116  0.61288664     0.36100
C1823       C  0.02459522  0.10439027  0.61258188    -0.26000
C1824       C  0.01319762  0.12323933  0.61879457     0.02600
C1825       C  0.02492620  0.14207300  0.62484967     0.27400
C1826       C  0.04777500  0.14128869  0.62578180    -0.25200
N1827       N  0.05907752  0.08457656  0.60632786    -0.82600
H1828       H  0.01558962  0.08995997  0.60790194     0.13200
C1829       C  0.98902383  0.12286036  0.61984996     0.02600
N1830       N  0.01354405  0.16192298  0.62985690    -0.81100
H1831       H  0.05686443  0.15558218  0.63074377     0.18000
C1832       C  0.97876564  0.12811562  0.63958103    -0.26000
C1833       C  0.95596378  0.12864028  0.64136377     0.36100
C1834       C  0.94303248  0.12311638  0.62306960    -0.20000
C1835       C  0.95341106  0.11751669  0.60339789    -0.25200
C1836       C  0.97623049  0.11749372  0.60154979     0.27400
H1837       H  0.98867763  0.13208659  0.65364757     0.13200
N1838       N  0.94603809  0.13512983  0.66157427    -0.82500
H1839       H  0.94369208  0.11322346  0.58930129     0.18000
N1840       N  0.98644230  0.11232609  0.58110995    -0.81100
H1841       H  0.95788830  0.13811206  0.67345520     0.33700
H1842       H  0.93813563  0.14996413  0.65886350     0.38200
H1843       H  0.97473133  0.10863480  0.56929780     0.33600
H1844       H  0.99454048  0.12629278  0.57574177     0.30300
H1845       H  0.02454668  0.17426610  0.63392356     0.33600
H1846       H  0.00556414  0.16696585  0.61567847     0.30300
H1847       H  0.06730213  0.07857280  0.61999314     0.38200
H1848       H  0.04818216  0.07245235  0.60144259     0.33700
C1849       C  0.94415914  0.86978976  0.62239167    -0.20100
C1850       C  0.95592822  0.85658595  0.63706278     0.36100
C1851       C  0.97881990  0.85673238  0.63640670    -0.26000
C1852       C  0.99005472  0.86983159  0.62142907     0.02600
C1853       C  0.97824150  0.88272032  0.60653542     0.27400
C1854       C  0.95539631  0.88236457  0.60701788    -0.25200
N1855       N  0.94461317  0.84290616  0.65231126    -0.82600
H1856       H  0.98798114  0.84663470  0.64761353     0.13200
C1857       C  0.01419530  0.87041862  0.62185276     0.02600
N1858       N  0.98951084  0.89646678  0.59131278    -0.81100
H1859       H  0.94629453  0.89246987  0.59576728     0.18000
C1860       C  0.02589343  0.86476835  0.60307528    -0.26000
C1861       C  0.04873849  0.86613281  0.60249124     0.36100
C1862       C  0.06019003  0.87284930  0.62140298    -0.20000
C1863       C  0.04833207  0.87820714  0.64026861    -0.25200
C1864       C  0.02548967  0.87726981  0.64061947     0.27400
H1865       H  0.01708300  0.85944401  0.58872460     0.13200
N1866       N  0.06019559  0.86028391  0.58290543    -0.82500
H1867       H  0.05689488  0.88343856  0.65479255     0.18000
N1868       N  0.01367686  0.88351134  0.65986862    -0.81100
H1869       H  0.04943957  0.85401215  0.57127540     0.33700
H1870       H  0.06643968  0.87462498  0.57621749     0.38200
H1871       H  0.02439934  0.88805896  0.67230431     0.33600
H1872       H  0.00450516  0.89733680  0.65604648     0.30300
H1873       H  0.97843109  0.90485881  0.58147042     0.33600
H1874       H  0.99795707  0.90822671  0.60028241     0.30300
H1875       H  0.93585433  0.83136601  0.64334267     0.38200
H1876       H  0.95568614  0.83423138  0.66191124     0.33700
C1877       C  0.12873871  0.94042495  0.62548210    -0.20100
C1878       C  0.13452832  0.95260366  0.64420071     0.36100
C1879       C  0.13358962  0.97544770  0.64344773    -0.26000
C1880       C  0.12760880  0.98631073  0.62429861     0.02600
C1881       C  0.12253361  0.97429071  0.60544483     0.27400
C1882       C  0.12311792  0.95149840  0.60623477    -0.25200
N1883       N  0.14172603  0.94186807  0.66372212    -0.82600
H1884       H  0.13790301  0.98489428  0.65773427     0.13200
C1885       C  0.12715871  0.01035082  0.62406691     0.02600
N1886       N  0.11663018  0.98530962  0.58564133    -0.81100
H1887       H  0.11881130  0.94235313  0.59176275     0.18000
C1888       C  0.14161337  0.02152765  0.61042287    -0.26000
C1889       C  0.14163837  0.04434251  0.60956639     0.36100
C1890       C  0.12706410  0.05611792  0.62291752    -0.20000
C1891       C  0.11278080  0.04491440  0.63677902    -0.25200
C1892       C  0.11250304  0.02207077  0.63729664     0.27400
H1893       H  0.15294110  0.01235986  0.60044555     0.13200
N1894       N  0.15700201  0.05554115  0.59590354    -0.82500
H1895       H  0.10154569  0.05402866  0.64691313     0.18000
N1896       N  0.09732252  0.01069797  0.65100584    -0.81100
H1897       H  0.16773624  0.04448429  0.58864510     0.33700
H1898       H  0.14828603  0.06266030  0.58313398     0.38200
H1899       H  0.08770341  0.02172508  0.65973676     0.33600
H1900       H  0.08676108  0.00199271  0.64086329     0.30300
H1901       H  0.11359109  0.97409822  0.57317420     0.33600
H1902       H  0.10199724  0.99354993  0.58848327     0.30300
H1903       H  0.15648440  0.93412616  0.66014958     0.38200
H1904       H  0.14508974  0.95322563  0.67596727     0.33700
C1905       C  0.62690222  0.87771142  0.19115105    -0.20100
C1906       C  0.60876776  0.86928108  0.20264681     0.36100
C1907       C  0.60908458  0.86909104  0.22556945    -0.26000
C1908       C  0.62726978  0.87657738  0.23713255     0.02600
C1909       C  0.64544970  0.88464896  0.22583154     0.27400
C1910       C  0.64505697  0.88523043  0.20298290    -0.25200
N1911       N  0.59036465  0.86047789  0.19113719    -0.82600
H1912       H  0.59525389  0.86274892  0.23450630     0.13200
C1913       C  0.62707474  0.87588968  0.26116975     0.02600
N1914       N  0.66431429  0.89197732  0.23763360    -0.81100
H1915       H  0.65906678  0.89162514  0.19438685     0.18000
C1916       C  0.63633720  0.85804924  0.27192698    -0.26000
C1917       C  0.63617401  0.85671093  0.29481036     0.36100
C1918       C  0.62667630  0.87379313  0.30708358    -0.20000
C1919       C  0.61774316  0.89179333  0.29609831    -0.25200
C1920       C  0.61782453  0.89298772  0.27327303     0.27400
H1921       H  0.64360235  0.84508651  0.26238443     0.13200
N1922       N  0.64620253  0.83845293  0.30549057    -0.82500
H1923       H  0.61048069  0.90495204  0.30536157     0.18000
N1924       N  0.60842863  0.91140195  0.26228796    -0.81100
H1925       H  0.65406883  0.82846837  0.29413876     0.33700
H1926       H  0.63374295  0.82900291  0.31218079     0.38200
H1927       H  0.60205283  0.92247661  0.27356017     0.33600
H1928       H  0.62097250  0.91948937  0.25411609     0.30300
H1929       H  0.67647071  0.89711442  0.22687764     0.33600
H1930       H  0.65977101  0.90563491  0.24673373     0.30300
H1931       H  0.59568843  0.84656591  0.18285819     0.38200
H1932       H  0.57837921  0.85528927  0.20205752     0.33700
C1933       C  0.63276396  0.88259409  0.69151236    -0.20100
C1934       C  0.64236955  0.90017873  0.70296746     0.36100
C1935       C  0.64332990  0.89950165  0.72585826    -0.26000
C1936       C  0.63459606  0.88189610  0.73738161     0.02600
C1937       C  0.62533672  0.86428047  0.72606550     0.27400
C1938       C  0.62458870  0.86475456  0.70325345    -0.25200
N1939       N  0.65156046  0.91835323  0.69145045    -0.82600
H1940       H  0.65057807  0.91288519  0.73480306     0.13200
C1941       C  0.63489256  0.88203238  0.76140434     0.02600
N1942       N  0.61662577  0.84605246  0.73787103    -0.81100
H1943       H  0.61726840  0.85122091  0.69460692     0.18000
C1944       C  0.61546171  0.88595647  0.77266760    -0.26000
C1945       C  0.61466102  0.88492174  0.79551756     0.36100
C1946       C  0.63371119  0.87922482  0.80726962    -0.20000
C1947       C  0.65329313  0.87589985  0.79576957    -0.25200
C1948       C  0.65405291  0.87723683  0.77296589     0.27400
H1949       H  0.60086163  0.88983353  0.76351846     0.13200
N1950       N  0.59463728  0.88975354  0.80667324    -0.82500
H1951       H  0.66805893  0.87182600  0.80453175     0.18000
N1952       N  0.67409444  0.87342514  0.76145373    -0.81100
H1953       H  0.58216180  0.89304153  0.79553327     0.33700
H1954       H  0.59705513  0.90409641  0.81552820     0.38200
H1955       H  0.68678339  0.87028645  0.77239058     0.33600
H1956       H  0.67210852  0.85932281  0.75212390     0.30300
H1957       H  0.61019314  0.83448937  0.72713248     0.33600
H1958       H  0.62956042  0.83850953  0.74597674     0.30300
H1959       H  0.63863629  0.92739008  0.68503824     0.38200
H1960       H  0.65964086  0.92877571  0.70223650     0.33700
C1961       C  0.69459128  0.88301131  0.62021387    -0.20100
C1962       C  0.70669316  0.90269389  0.62070820     0.36100
C1963       C  0.72959824  0.90184739  0.62027459    -0.26000
C1964       C  0.74063737  0.88189719  0.61961275     0.02600
C1965       C  0.72871687  0.86237013  0.61859720     0.27400
C1966       C  0.70590404  0.86311419  0.61897481    -0.25200
N1967       N  0.69588996  0.92343315  0.62194909    -0.82600
H1968       H  0.73894010  0.91679183  0.62106824     0.13200
C1969       C  0.76471936  0.88144717  0.62074695     0.02600
N1970       N  0.73990225  0.84183510  0.61720750    -0.81100
H1971       H  0.69695373  0.84793892  0.61836861     0.18000
C1972       C  0.77472802  0.87088897  0.63835475    -0.26000
C1973       C  0.79746954  0.86884843  0.63953639     0.36100
C1974       C  0.81044536  0.87774786  0.62278917    -0.20000
C1975       C  0.80039996  0.88868357  0.60536227    -0.25200
C1976       C  0.77763183  0.89069309  0.60420796     0.27400
H1977       H  0.76466594  0.86392109  0.65106410     0.13200
N1978       N  0.80734471  0.85733277  0.65737431    -0.82500
H1979       H  0.81036684  0.89571829  0.59261550     0.18000
N1980       N  0.76756292  0.90183911  0.58624489    -0.81100
H1981       H  0.79549026  0.85199718  0.66836481     0.33700
H1982       H  0.81472435  0.84335776  0.65100716     0.38200
H1983       H  0.77938453  0.90786472  0.57557171     0.33600
H1984       H  0.75846793  0.89041584  0.57748977     0.30300
H1985       H  0.72878083  0.82895043  0.61674342     0.33600
H1986       H  0.74831519  0.84152754  0.60240805     0.30300
H1987       H  0.68880577  0.92459588  0.63738827     0.38200
H1988       H  0.70716761  0.93615430  0.62095148     0.33700
C1989       C  0.62190471  0.87834847  0.55775032    -0.20100
C1990       C  0.61153532  0.86094933  0.54681161     0.36100
C1991       C  0.61105062  0.86072491  0.52390654    -0.26000
C1992       C  0.62081266  0.87741394  0.51173392     0.02600
C1993       C  0.63088074  0.89494032  0.52269163     0.27400
C1994       C  0.63106774  0.89534538  0.54555733    -0.25200
N1995       N  0.60133145  0.84373681  0.55894264    -0.82600
H1996       H  0.60298580  0.84748884  0.51546457     0.13200
C1997       C  0.62064487  0.87626348  0.48753298     0.02600
N1998       N  0.64130691  0.91201153  0.51054940    -0.81100
H1999       H  0.63904935  0.90869082  0.55390791     0.18000
C2000       C  0.61207455  0.89371867  0.47555570    -0.26000
C2001       C  0.61245009  0.89370559  0.45266385     0.36100
C2002       C  0.62163802  0.87577005  0.44145460    -0.20000
C2003       C  0.62957175  0.85800680  0.45348166    -0.25200
C2004       C  0.62934607  0.85813625  0.47637948     0.27400
H2005       H  0.60500256  0.90741979  0.48416086     0.13200
N2006       N  0.60327910  0.91170981  0.44083475    -0.82500
H2007       H  0.63653759  0.84418442  0.44499478     0.18000
N2008       N  0.63832703  0.84013357  0.48834967    -0.81100
H2009       H  0.59750524  0.92365094  0.45154165     0.33700
H2010       H  0.58973469  0.90589710  0.43230165     0.38200
H2011       H  0.64395528  0.82805829  0.47772926     0.33600
H2012       H  0.65191358  0.84585387  0.49688203     0.30300
H2013       H  0.64785308  0.92372386  0.52104785     0.33600
H2014       H  0.65442172  0.90509974  0.50215849     0.30300
H2015       H  0.58833221  0.85055333  0.56761170     0.38200
H2016       H  0.59462185  0.83214572  0.54842665     0.33700
C2017       C  0.30962999  0.87487878  0.62440368    -0.20100
C2018       C  0.29687065  0.89363386  0.62007600     0.36100
C2019       C  0.27414025  0.89252440  0.62229958    -0.26000
C2020       C  0.26394032  0.87310892  0.62832839     0.02600
C2021       C  0.27641649  0.85442132  0.63258235     0.27400
C2022       C  0.29915090  0.85546397  0.63058488    -0.25200
N2023       N  0.30686971  0.91361836  0.61313851    -0.82600
H2024       H  0.26423015  0.90671031  0.61880774     0.13200
C2025       C  0.24000242  0.87219254  0.62858669     0.02600
N2026       N  0.26587064  0.83446775  0.63875370    -0.81100
H2027       H  0.30870336  0.84105394  0.63408712     0.18000
C2028       C  0.22929974  0.86343978  0.61049038    -0.26000
C2029       C  0.20650427  0.86282390  0.60954560     0.36100
C2030       C  0.19423384  0.87150004  0.62702699    -0.20000
C2031       C  0.20510236  0.87979106  0.64541978    -0.25200
C2032       C  0.22795970  0.88021048  0.64635391     0.27400
H2033       H  0.23883761  0.85711453  0.59703561     0.13200
N2034       N  0.19583868  0.85321915  0.59102030    -0.82500
H2035       H  0.19576361  0.88632357  0.65890632     0.18000
N2036       N  0.23901863  0.88893655  0.66506953    -0.81100
H2037       H  0.20725719  0.84789673  0.57955609     0.33700
H2038       H  0.18762983  0.83933874  0.59646918     0.38200
H2039       H  0.22776390  0.89431643  0.67668140     0.33600
H2040       H  0.24775582  0.87623466  0.67228475     0.30300
H2041       H  0.27736881  0.82213040  0.64115577     0.33600
H2042       H  0.25830550  0.83708045  0.65378713     0.30300
H2043       H  0.31354134  0.91088863  0.59770579     0.38200
H2044       H  0.29518690  0.92587408  0.61124174     0.33700
C2045       C  0.37193639  0.87765981  0.69108440    -0.20100
C2046       C  0.37200854  0.89732221  0.70321830     0.36100
C2047       C  0.36995612  0.89651859  0.72600114    -0.26000
C2048       C  0.36777863  0.87665977  0.73701338     0.02600
C2049       C  0.36696844  0.85712936  0.72496811     0.27400
C2050       C  0.36898251  0.85784843  0.70220005    -0.25200
N2051       N  0.37441274  0.91803057  0.69258945    -0.82600
H2052       H  0.37013597  0.91151618  0.73531357     0.13200
C2053       C  0.36728497  0.87653558  0.76121183     0.02600
N2054       N  0.36453943  0.83659364  0.73592560    -0.81100
H2055       H  0.36849204  0.84271414  0.69314419     0.18000
C2056       C  0.34988941  0.86654682  0.77215177    -0.26000
C2057       C  0.34942202  0.86538425  0.79502288     0.36100
C2058       C  0.36644491  0.87497363  0.80720977    -0.20000
C2059       C  0.38373700  0.88511024  0.79622039    -0.25200
C2060       C  0.38440854  0.88588275  0.77337707     0.27400
H2061       H  0.33674591  0.85941566  0.76276890     0.13200
N2062       N  0.33200461  0.85409635  0.80584152    -0.82500
H2063       H  0.39679732  0.89251926  0.80550546     0.18000
N2064       N  0.40253749  0.89590842  0.76246393    -0.81100
H2065       H  0.32079955  0.84806518  0.79450987     0.33700
H2066       H  0.33876508  0.84055548  0.81363989     0.38200
H2067       H  0.41366530  0.90213784  0.77374635     0.33600
H2068       H  0.41070132  0.88374937  0.75374696     0.30300
H2069       H  0.36401984  0.82379531  0.72470220     0.33600
H2070       H  0.37843416  0.83415851  0.74548110     0.30300
H2071       H  0.36004357  0.92100300  0.68393496     0.38200
H2072       H  0.37569735  0.93057968  0.70404029     0.33700
C2073       C  0.44396241  0.87719508  0.62595378    -0.20100
C2074       C  0.45544807  0.89439649  0.63613861     0.36100
C2075       C  0.47831690  0.89386900  0.63670421    -0.26000
C2076       C  0.49004748  0.87691378  0.62687363     0.02600
C2077       C  0.47865325  0.85976364  0.61665417     0.27400
C2078       C  0.45574124  0.85996302  0.61653190    -0.25200
N2079       N  0.44396015  0.91199914  0.64649135    -0.82600
H2080       H  0.48711092  0.90684381  0.64481998     0.13200
C2081       C  0.51425872  0.87749038  0.62736425     0.02600
N2082       N  0.49038994  0.84236430  0.60624128    -0.81100
H2083       H  0.44703164  0.84679166  0.60864776     0.18000
C2084       C  0.52580203  0.85995760  0.63637084    -0.26000
C2085       C  0.54871880  0.85978201  0.63686205     0.36100
C2086       C  0.56036192  0.87783928  0.62848823    -0.20000
C2087       C  0.54867319  0.89560161  0.62002300    -0.25200
C2088       C  0.52582829  0.89553167  0.61915341     0.27400
H2089       H  0.51684371  0.84629480  0.64300605     0.13200
N2090       N  0.56001773  0.84157747  0.64630428    -0.82500
H2091       H  0.55741407  0.90945005  0.61349272     0.18000
N2092       N  0.51433108  0.91359188  0.60966760    -0.81100
H2093       H  0.54900193  0.83084572  0.65357978     0.33700
H2094       H  0.56723365  0.83288112  0.63355434     0.38200
H2095       H  0.52521774  0.92563599  0.60456316     0.33600
H2096       H  0.50642559  0.90790600  0.59568999     0.30300
H2097       H  0.47960388  0.83098558  0.59958865     0.33600
H2098       H  0.49905591  0.84904546  0.59320550     0.30300
H2099       H  0.43738337  0.92172261  0.63417044     0.38200
H2100       H  0.45477174  0.92200583  0.65504307     0.33700
C2101       C  0.37125661  0.87784226  0.19151521    -0.20100
C2102       C  0.35291624  0.88369075  0.20432092     0.36100
C2103       C  0.35486365  0.88415349  0.22709530    -0.26000
C2104       C  0.37436173  0.87828429  0.23727612     0.02600
C2105       C  0.39250391  0.87214828  0.22476333     0.27400
C2106       C  0.39084347  0.87215290  0.20199049    -0.25200
N2107       N  0.33244559  0.88921782  0.19435218    -0.82600
H2108       H  0.34096068  0.88859863  0.23704133     0.13200
C2109       C  0.37515409  0.87758737  0.26119327     0.02600
N2110       N  0.41240922  0.86569553  0.23529136    -0.81100
H2111       H  0.40488738  0.86740754  0.19241028     0.18000
C2112       C  0.37248026  0.85756415  0.27161022    -0.26000
C2113       C  0.37255019  0.85608339  0.29441011     0.36100
C2114       C  0.37507720  0.87528447  0.30702653    -0.20000
C2115       C  0.37792043  0.89534927  0.29628938    -0.25200
C2116       C  0.37807448  0.89665049  0.27348068     0.27400
H2117       H  0.37030026  0.84302285  0.26183043     0.13200
N2118       N  0.36976642  0.83520262  0.30459119    -0.82500
H2119       H  0.38007661  0.91013322  0.30567633     0.18000
N2120       N  0.38100304  0.91721318  0.26270558    -0.81100
H2121       H  0.36646396  0.82321067  0.29295237     0.33700
H2122       H  0.38469871  0.83094997  0.31160617     0.38200
H2123       H  0.38276727  0.92974169  0.27411853     0.33600
H2124       H  0.39563551  0.91643929  0.25402615     0.30300
H2125       H  0.42415266  0.86132910  0.22374102     0.33600
H2126       H  0.41850831  0.87925977  0.24357615     0.30300
H2127       H  0.32581668  0.87484917  0.18807754     0.38200
H2128       H  0.32135246  0.89474385  0.20605467     0.33700
C2129       C  0.55788366  0.87504804  0.37304059    -0.20100
C2130       C  0.54566779  0.85807825  0.38263627     0.36100
C2131       C  0.52284991  0.85859943  0.38141021    -0.26000
C2132       C  0.51197761  0.87581367  0.37110368     0.02600
C2133       C  0.52410175  0.89295124  0.36183655     0.27400
C2134       C  0.54694876  0.89243136  0.36297379    -0.25200
N2135       N  0.55639756  0.84067065  0.39404784    -0.82600
H2136       H  0.51342256  0.84573014  0.38893025     0.13200
C2137       C  0.48784286  0.87597999  0.37092850     0.02600
N2138       N  0.51315276  0.91069425  0.35118840    -0.81100
H2139       H  0.55626762  0.90548093  0.35563862     0.18000
C2140       C  0.47677552  0.89337501  0.38074153    -0.26000
C2141       C  0.45393986  0.89370736  0.38189078     0.36100
C2142       C  0.44191761  0.87621536  0.37295364    -0.20000
C2143       C  0.45306600  0.85879726  0.36313054    -0.25200
C2144       C  0.47590473  0.85858172  0.36187284     0.27400
H2145       H  0.48605911  0.90653466  0.38796278     0.13200
N2146       N  0.44301726  0.91149087  0.39253820    -0.82500
H2147       H  0.44391359  0.84544821  0.35609593     0.18000
N2148       N  0.48704348  0.84086732  0.35133270    -0.81100
H2149       H  0.45423572  0.92309788  0.39792561     0.33700
H2150       H  0.43543299  0.90527618  0.40646845     0.38200
H2151       H  0.47589983  0.82933992  0.34559075     0.33600
H2152       H  0.49499339  0.84716910  0.33766472     0.30300
H2153       H  0.52441932  0.92203773  0.34535667     0.33600
H2154       H  0.50508902  0.90436480  0.33758211     0.30300
H2155       H  0.56409827  0.84743372  0.40766733     0.38200
H2156       H  0.54504054  0.82947371  0.39997943     0.33700
C2157       C  0.37577163  0.87518381  0.44120956    -0.20100
C2158       C  0.36722526  0.89277731  0.45341585     0.36100
C2159       C  0.36882836  0.89245711  0.47622438    -0.26000
C2160       C  0.37834185  0.87479299  0.48705614     0.02600
C2161       C  0.38661922  0.85711701  0.47498988     0.27400
C2162       C  0.38519460  0.85745533  0.45217453    -0.25200
N2163       N  0.35650586  0.91063392  0.44271386    -0.82600
H2164       H  0.36218335  0.90580912  0.48568175     0.13200
C2165       C  0.37868589  0.87463516  0.51113119     0.02600
N2166       N  0.39654447  0.83899375  0.48599268    -0.81100
H2167       H  0.39179836  0.84395733  0.44290801     0.18000
C2168       C  0.36687516  0.85859408  0.52221007    -0.26000
C2169       C  0.36644741  0.85795604  0.54506281     0.36100
C2170       C  0.37794662  0.87393822  0.55702401    -0.20000
C2171       C  0.38955677  0.89014421  0.54584220    -0.25200
C2172       C  0.39020758  0.89054007  0.52298758     0.27400
H2173       H  0.35782635  0.84660833  0.51292528     0.13200
N2174       N  0.35364104  0.84173222  0.55603620    -0.82500
H2175       H  0.39839372  0.90238332  0.55499429     0.18000
N2176       N  0.40256535  0.90692463  0.51175151    -0.81100
H2177       H  0.34465238  0.83260918  0.54480532     0.33700
H2178       H  0.36444050  0.83080099  0.56335971     0.38200
H2179       H  0.41001308  0.91746989  0.52286951     0.33600
H2180       H  0.41511457  0.89904880  0.50334011     0.30300
H2181       H  0.40170257  0.82725756  0.47476828     0.33600
H2182       H  0.41053372  0.84473999  0.49382916     0.30300
H2183       H  0.34241438  0.90450405  0.43535684     0.38200
H2184       H  0.35137051  0.92226151  0.45406243     0.33700
C2185       C  0.87515964  0.37512582  0.69298216    -0.20100
C2186       C  0.89425796  0.37186729  0.70556108     0.36100
C2187       C  0.89275251  0.37175048  0.72836573    -0.26000
C2188       C  0.87279550  0.37507534  0.73886957     0.02600
C2189       C  0.85382827  0.37864283  0.72652874     0.27400
C2190       C  0.85519930  0.37866360  0.70373168    -0.25200
N2191       N  0.91504753  0.36841206  0.69533321    -0.82600
H2192       H  0.90727328  0.36921076  0.73809259     0.13200
C2193       C  0.87212094  0.37469093  0.76289303     0.02600
N2194       N  0.83324383  0.38195817  0.73721367    -0.81100
H2195       H  0.84049118  0.38132741  0.69434831     0.18000
C2196       C  0.86652683  0.39366430  0.77423127    -0.26000
C2197       C  0.86637316  0.39410758  0.79709868     0.36100
C2198       C  0.87222251  0.37510617  0.80881762    -0.20000
C2199       C  0.87758041  0.35606681  0.79725757    -0.25200
C2200       C  0.87751815  0.35566032  0.77442507     0.27400
H2201       H  0.86236244  0.40820514  0.76514762     0.13200
N2202       N  0.86018576  0.41372353  0.80831620    -0.82500
H2203       H  0.88201722  0.34143296  0.80603681     0.18000
N2204       N  0.88293358  0.33602817  0.76284326    -0.81100
H2205       H  0.85699914  0.42625066  0.79724663     0.33700
H2206       H  0.84551077  0.41060864  0.81638095     0.38200
H2207       H  0.88667432  0.32348964  0.77372670     0.33600
H2208       H  0.86905136  0.33110151  0.75428621     0.30300
H2209       H  0.82087229  0.38448468  0.72577256     0.33600
H2210       H  0.82936809  0.36760105  0.74547448     0.30300
H2211       H  0.91976792  0.38317982  0.68834546     0.38200
H2212       H  0.92695171  0.36470243  0.70695318     0.33700
C2213       C  0.87571429  0.30675399  0.62731914    -0.20100
C2214       C  0.86054769  0.29483685  0.63989206     0.36100
C2215       C  0.86176344  0.27199670  0.64022744    -0.26000
C2216       C  0.87743966  0.26084143  0.62793589     0.02600
C2217       C  0.89257287  0.27267023  0.61538693     0.27400
C2218       C  0.89171259  0.29552804  0.61540665    -0.25200
N2219       N  0.84433970  0.30588741  0.65270632    -0.82600
H2220       H  0.85011171  0.26277719  0.64973702     0.13200
C2221       C  0.87720470  0.23672384  0.62765914     0.02600
N2222       N  0.90865313  0.26138482  0.60261987    -0.81100
H2223       H  0.90335629  0.30463132  0.60577622     0.18000
C2224       C  0.87279217  0.22596008  0.60804260    -0.26000
C2225       C  0.87176000  0.20314842  0.60700904     0.36100
C2226       C  0.87574252  0.19071910  0.62606078    -0.20000
C2227       C  0.87996569  0.20168072  0.64577744    -0.25200
C2228       C  0.88071585  0.22453580  0.64676043     0.27400
H2229       H  0.86971747  0.23549611  0.59351595     0.13200
N2230       N  0.86638407  0.19272300  0.58672223    -0.82500
H2231       H  0.88294976  0.19241635  0.66048469     0.18000
N2232       N  0.88519573  0.23543972  0.66701022    -0.81100
H2233       H  0.86466257  0.20420004  0.57427127     0.33700
H2234       H  0.85111369  0.18543351  0.58863063     0.38200
H2235       H  0.88726996  0.22414489  0.67958025     0.33600
H2236       H  0.90003567  0.24359331  0.66530100     0.30300
H2237       H  0.91843304  0.27245070  0.59415321     0.33600
H2238       H  0.91888424  0.25306704  0.61338400     0.30300
H2239       H  0.83288372  0.31241299  0.64193994     0.38200
H2240       H  0.83581019  0.29480329  0.66240329     0.33700
C2241       C  0.87735678  0.37680961  0.30884019    -0.20100
C2242       C  0.89641446  0.38157980  0.29670604     0.36100
C2243       C  0.89547390  0.38157416  0.27386403    -0.26000
C2244       C  0.87602829  0.37702396  0.26293780     0.02600
C2245       C  0.85704270  0.37224076  0.27478823     0.27400
C2246       C  0.85785104  0.37226645  0.29764995    -0.25200
N2247       N  0.91662334  0.38651675  0.30748028    -0.82600
H2248       H  0.90998752  0.38511254  0.26446058     0.13200
C2249       C  0.87608228  0.37658287  0.23895995     0.02600
N2250       N  0.83718116  0.36700991  0.26351987    -0.81100
H2251       H  0.84321871  0.36844567  0.30673302     0.18000
C2252       C  0.87971446  0.35676905  0.22838265    -0.26000
C2253       C  0.88072714  0.35560433  0.20557923     0.36100
C2254       C  0.87746930  0.37474686  0.19308463    -0.20000
C2255       C  0.87407429  0.39467187  0.20393962    -0.25200
C2256       C  0.87337407  0.39575788  0.22678398     0.27400
H2257       H  0.88211841  0.34220352  0.23804381     0.13200
N2258       N  0.88532768  0.33510270  0.19522226    -0.82500
H2259       H  0.87171788  0.40944669  0.19461361     0.18000
N2260       N  0.87006476  0.41621096  0.23770809    -0.81100
H2261       H  0.88660797  0.32265260  0.20676916     0.33700
H2262       H  0.90063442  0.33640398  0.18788402     0.38200
H2263       H  0.86862766  0.42884739  0.22638898     0.33600
H2264       H  0.85518738  0.41535951  0.24593227     0.30300
H2265       H  0.82474879  0.36353970  0.27463102     0.33600
H2266       H  0.83227771  0.38085451  0.25493599     0.30300
H2267       H  0.91461567  0.40137538  0.31555621     0.38200
H2268       H  0.92911491  0.38883113  0.29613726     0.33700
C2269       C  0.87748248  0.37574848  0.44290131    -0.20100
C2270       C  0.89300756  0.38763249  0.45501797     0.36100
C2271       C  0.89241495  0.38679901  0.47786978    -0.26000
C2272       C  0.87658289  0.37445214  0.48874805     0.02600
C2273       C  0.86097358  0.36274251  0.47663203     0.27400
C2274       C  0.86147734  0.36366901  0.45381281    -0.25200
N2275       N  0.90894632  0.40086704  0.44412295    -0.82600
H2276       H  0.90413495  0.39605766  0.48728378     0.13200
C2277       C  0.87628426  0.37421807  0.51286123     0.02600
N2278       N  0.84484761  0.34978115  0.48757345    -0.81100
H2279       H  0.84959131  0.35454577  0.44447320     0.18000
C2280       C  0.85752329  0.38124867  0.52382029    -0.26000
C2281       C  0.85651061  0.38132775  0.54666413     0.36100
C2282       C  0.87472717  0.37409156  0.55880540    -0.20000
C2283       C  0.89357849  0.36726802  0.54772136    -0.25200
C2284       C  0.89450303  0.36713980  0.52488774     0.27400
H2285       H  0.84369413  0.38696982  0.51445068     0.13200
N2286       N  0.83721420  0.38908353  0.55745791    -0.82500
H2287       H  0.90758251  0.36167168  0.55689312     0.18000
N2288       N  0.91375363  0.35961994  0.51384866    -0.81100
H2289       H  0.82523448  0.39332317  0.54610760     0.33700
H2290       H  0.84134744  0.40340063  0.56570224     0.38200
H2291       H  0.92574439  0.35509661  0.52507271     0.33600
H2292       H  0.90958614  0.34554945  0.50520773     0.30300
H2293       H  0.83450686  0.34228277  0.47629510     0.33600
H2294       H  0.85300359  0.33730032  0.49578454     0.30300
H2295       H  0.90059103  0.41327661  0.43596542     0.38200
H2296       H  0.91914815  0.40849182  0.45542513     0.33700
C2297       C  0.86778020  0.69059223  0.62999163    -0.20100
C2298       C  0.88353219  0.70156423  0.64270399     0.36100
C2299       C  0.88372801  0.72441338  0.64306790    -0.26000
C2300       C  0.86821319  0.73642522  0.63141471     0.02600
C2301       C  0.85164213  0.72548465  0.61986213     0.27400
C2302       C  0.85163958  0.70263076  0.61917574    -0.25200
N2303       N  0.89915901  0.68947138  0.65528840    -0.82600
H2304       H  0.89626677  0.73291768  0.65212972     0.13200
C2305       C  0.87028316  0.76040708  0.63026478     0.02600
N2306       N  0.83504967  0.73769745  0.60872723    -0.81100
H2307       H  0.83929428  0.69420762  0.60977894     0.18000
C2308       C  0.87366953  0.77007014  0.60990058    -0.26000
C2309       C  0.87593720  0.79269566  0.60776166     0.36100
C2310       C  0.87439095  0.80609712  0.62651107    -0.20000
C2311       C  0.87144843  0.79620224  0.64700886    -0.25200
C2312       C  0.86937733  0.77351556  0.64906482     0.27400
H2313       H  0.87482227  0.75978778  0.59558371     0.13200
N2314       N  0.87990839  0.80192992  0.58662004    -0.82500
H2315       H  0.87042681  0.80618954  0.66152631     0.18000
N2316       N  0.86608222  0.76375780  0.67008848    -0.81100
H2317       H  0.87969424  0.78986864  0.57457779     0.33700
H2318       H  0.89570880  0.80826617  0.58673896     0.38200
H2319       H  0.86592683  0.77565058  0.68228892     0.33600
H2320       H  0.85063842  0.75659120  0.67006419     0.30300
H2321       H  0.82409851  0.72723222  0.60094500     0.33600
H2322       H  0.82614699  0.74619218  0.62051681     0.30300
H2323       H  0.89054959  0.68072343  0.66709937     0.38200
H2324       H  0.90955242  0.69999747  0.66371202     0.33700
C2325       C  0.86827257  0.62071581  0.69281468    -0.20100
C2326       C  0.84882573  0.61678018  0.70465323     0.36100
C2327       C  0.84958807  0.61562290  0.72748942    -0.26000
C2328       C  0.86924904  0.61803331  0.73877877     0.02600
C2329       C  0.88860505  0.62204676  0.72717730     0.27400
C2330       C  0.88794804  0.62327253  0.70433810    -0.25200
N2331       N  0.82839224  0.61374145  0.69360182    -0.82600
H2332       H  0.83478676  0.61253637  0.73659691     0.13200
C2333       C  0.86923493  0.61671074  0.76284964     0.02600
N2334       N  0.90878453  0.62509076  0.73868709    -0.81100
H2335       H  0.90291135  0.62642945  0.69554529     0.18000
C2336       C  0.88077312  0.59993773  0.77322688    -0.26000
C2337       C  0.88166274  0.59865181  0.79609333     0.36100
C2338       C  0.87070199  0.61448536  0.80869710    -0.20000
C2339       C  0.85882528  0.63097441  0.79820045    -0.25200
C2340       C  0.85797517  0.63225405  0.77541557     0.27400
H2341       H  0.88929513  0.58798479  0.76341122     0.13200
N2342       N  0.89407919  0.58173422  0.80647090    -0.82500
H2343       H  0.85026907  0.64303770  0.80785154     0.18000
N2344       N  0.84599407  0.64944289  0.76495903    -0.81100
H2345       H  0.90097050  0.57137111  0.79483982     0.33700
H2346       H  0.90705802  0.58913661  0.81466704     0.38200
H2347       H  0.83847622  0.65943193  0.77653735     0.33600
H2348       H  0.85719336  0.65918804  0.75664156     0.30300
H2349       H  0.92155863  0.62783739  0.72776753     0.33600
H2350       H  0.90727591  0.63921310  0.74809382     0.30300
H2351       H  0.82933519  0.59901276  0.68510297     0.38200
H2352       H  0.81566241  0.61201260  0.70478526     0.33700
C2353       C  0.87080291  0.55674350  0.62452144    -0.20100
C2354       C  0.85267882  0.54405582  0.61807565     0.36100
C2355       C  0.85395641  0.52127199  0.61923727    -0.26000
C2356       C  0.87285529  0.51083809  0.62668777     0.02600
C2357       C  0.89097456  0.52340792  0.63308155     0.27400
C2358       C  0.88981864  0.54620368  0.63177191    -0.25200
N2359       N  0.83314596  0.55423458  0.61009871    -0.82600
H2360       H  0.84021327  0.51152198  0.61398677     0.13200
C2361       C  0.87351567  0.48670081  0.62709052     0.02600
N2362       N  0.91034675  0.51297653  0.64112960    -0.81100
H2363       H  0.90372162  0.55578647  0.63689436     0.18000
C2364       C  0.88975028  0.47576354  0.61529238    -0.26000
C2365       C  0.89038890  0.45292949  0.61446261     0.36100
C2366       C  0.87435576  0.44080263  0.62561047    -0.20000
C2367       C  0.85803348  0.45175973  0.63730844    -0.25200
C2368       C  0.85762245  0.47459330  0.63841614     0.27400
H2369       H  0.90173238  0.48512052  0.60634934     0.13200
N2370       N  0.90694916  0.44205489  0.60195193    -0.82500
H2371       H  0.84584591  0.44245181  0.64602599     0.18000
N2372       N  0.84130224  0.48555486  0.65116648    -0.81100
H2373       H  0.91756709  0.45334533  0.59492364     0.33700
H2374       H  0.89922113  0.43398425  0.58908853     0.38200
H2375       H  0.83081866  0.47430531  0.65845415     0.33600
H2376       H  0.84927522  0.49370363  0.66382861     0.30300
H2377       H  0.92221821  0.52453121  0.64506791     0.33600
H2378       H  0.90627561  0.50505461  0.65563276     0.30300
H2379       H  0.83699449  0.56184935  0.59536505     0.38200
H2380       H  0.82126106  0.54257904  0.60653717     0.33700
C2381       C  0.86954787  0.62437433  0.30834913    -0.20100
C2382       C  0.85264727  0.61434483  0.29620699     0.36100
C2383       C  0.85373398  0.61420321  0.27330865    -0.26000
C2384       C  0.87102408  0.62414925  0.26229705     0.02600
C2385       C  0.88785944  0.63412496  0.27422612     0.27400
C2386       C  0.88702186  0.63404652  0.29712025    -0.25200
N2387       N  0.83472497  0.60387759  0.30702801    -0.82600
H2388       H  0.84087114  0.60655962  0.26393209     0.13200
C2389       C  0.87101733  0.62437310  0.23818569     0.02600
N2390       N  0.90566268  0.64435582  0.26299859    -0.81100
H2391       H  0.90000266  0.64178665  0.30623871     0.18000
C2392       C  0.86434290  0.64323480  0.22728873    -0.26000
C2393       C  0.86359866  0.64400791  0.20440445     0.36100
C2394       C  0.87003455  0.62552431  0.19215398    -0.20000
C2395       C  0.87655411  0.60657276  0.20325374    -0.25200
C2396       C  0.87720972  0.60587038  0.22614888     0.27400
H2397       H  0.85944085  0.65732227  0.23674090     0.13200
N2398       N  0.85605197  0.66338869  0.19366211    -0.82500
H2399       H  0.88159594  0.59237852  0.19405146     0.18000
N2400       N  0.88425671  0.58652455  0.23726855    -0.81100
H2401       H  0.85230781  0.67552014  0.20503113     0.33700
H2402       H  0.84147813  0.65952458  0.18573437     0.38200
H2403       H  0.88816246  0.57428714  0.22606593     0.33600
H2404       H  0.89864588  0.59028763  0.24556473     0.30300
H2405       H  0.91664218  0.65113023  0.27413380     0.33600
H2406       H  0.91413513  0.63221252  0.25458308     0.30300
H2407       H  0.82491693  0.61611081  0.31366710     0.38200
H2408       H  0.82492351  0.59564950  0.29577603     0.33700
C2409       C  0.87240538  0.55837753  0.37772365    -0.20100
C2410       C  0.85525742  0.54512054  0.36988966     0.36100
C2411       C  0.85747814  0.52239486  0.37064185    -0.26000
C2412       C  0.87608004  0.51262807  0.37957427     0.02600
C2413       C  0.89295186  0.52574405  0.38787851     0.27400
C2414       C  0.89105823  0.54848857  0.38663664    -0.25200
N2415       N  0.83593837  0.55462732  0.36065599    -0.82600
H2416       H  0.84459510  0.51216137  0.36424306     0.13200
C2417       C  0.87750940  0.48857996  0.37998182     0.02600
N2418       N  0.91180058  0.51590023  0.39769596    -0.81100
H2419       H  0.90409780  0.55855536  0.39297365     0.18000
C2420       C  0.89410416  0.47806795  0.36829794    -0.26000
C2421       C  0.89491388  0.45522862  0.36695710     0.36100
C2422       C  0.87882107  0.44275988  0.37767419    -0.20000
C2423       C  0.86246421  0.45337131  0.38964041    -0.25200
C2424       C  0.86174469  0.47614540  0.39104461     0.27400
H2425       H  0.90607786  0.48775831  0.35970094     0.13200
N2426       N  0.91157728  0.44474137  0.35425689    -0.82500
H2427       H  0.85029085  0.44382851  0.39811804     0.18000
N2428       N  0.84508291  0.48675583  0.40364767    -0.81100
H2429       H  0.92215954  0.45627086  0.34755308     0.33700
H2430       H  0.90394554  0.43697493  0.34115775     0.38200
H2431       H  0.83469547  0.47528787  0.41072845     0.33600
H2432       H  0.85275510  0.49495365  0.41646280     0.30300
H2433       H  0.92272754  0.52783819  0.40299818     0.33600
H2434       H  0.90659244  0.50759008  0.41160682     0.30300
H2435       H  0.82701798  0.56146265  0.37345594     0.38200
H2436       H  0.82593996  0.54258847  0.35393630     0.33700
C2437       C  0.86967039  0.62634668  0.55845515    -0.20100
C2438       C  0.88628248  0.63736184  0.54693218     0.36100
C2439       C  0.88579210  0.63766987  0.52404955    -0.26000
C2440       C  0.86909154  0.62728053  0.51252142     0.02600
C2441       C  0.85260535  0.61610226  0.52387844     0.27400
C2442       C  0.85293367  0.61594795  0.54677243    -0.25200
N2443       N  0.90341839  0.64841786  0.55845035    -0.82600
H2444       H  0.89847486  0.64605978  0.51510423     0.13200
C2445       C  0.86964494  0.62749347  0.48848166     0.02600
N2446       N  0.83613283  0.60427726  0.51212771    -0.81100
H2447       H  0.84032272  0.60726363  0.55553101     0.18000
C2448       C  0.88297901  0.61246638  0.47763483    -0.26000
C2449       C  0.88388320  0.61192742  0.45477437     0.36100
C2450       C  0.87089608  0.62651046  0.44267999    -0.20000
C2451       C  0.85784489  0.64179994  0.45356780    -0.25200
C2452       C  0.85741101  0.64272351  0.47643842     0.27400
H2453       H  0.89261124  0.60108407  0.48707851     0.13200
N2454       N  0.89763923  0.59645246  0.44380412    -0.82500
H2455       H  0.84830950  0.65330319  0.44416886     0.18000
N2456       N  0.84527771  0.65948236  0.48744590    -0.81100
H2457       H  0.90623270  0.58703396  0.45509279     0.33700
H2458       H  0.88756635  0.58576854  0.43517208     0.38200
H2459       H  0.83778491  0.66980480  0.47615273     0.33600
H2460       H  0.83276457  0.65210581  0.49624887     0.30300
H2461       H  0.82561207  0.59638494  0.52293649     0.33600
H2462       H  0.82664816  0.61547353  0.50354483     0.30300
H2463       H  0.89632741  0.66126369  0.56711466     0.38200
H2464       H  0.91444689  0.65541166  0.54753689     0.33700
C2465       C  0.37687186  0.12712822  0.69125002    -0.20100
C2466       C  0.37394011  0.14664054  0.70331143     0.36100
C2467       C  0.37398603  0.14587766  0.72618979    -0.26000
C2468       C  0.37665618  0.12616831  0.73725017     0.02600
C2469       C  0.37982656  0.10679787  0.72547224     0.27400
C2470       C  0.37983512  0.10743460  0.70261286    -0.25200
N2471       N  0.37075715  0.16713283  0.69246768    -0.82600
H2472       H  0.37160558  0.16068595  0.73551083     0.13200
C2473       C  0.37605922  0.12603435  0.76128013     0.02600
N2474       N  0.38310763  0.08660171  0.73683263    -0.81100
H2475       H  0.38229514  0.09242310  0.69367209     0.18000
C2476       C  0.35771623  0.11765448  0.77188517    -0.26000
C2477       C  0.35641358  0.11745106  0.79473413     0.36100
C2478       C  0.37419702  0.12536767  0.80716215    -0.20000
C2479       C  0.39259803  0.13362979  0.79634617    -0.25200
C2480       C  0.39362717  0.13417538  0.77351377     0.27400
H2481       H  0.34427499  0.11147857  0.76223798     0.13200
N2482       N  0.33735753  0.10875476  0.80520385    -0.82500
H2483       H  0.40617712  0.13987214  0.80574173     0.18000
N2484       N  0.41241859  0.14292485  0.76264621    -0.81100
H2485       H  0.32684057  0.10184317  0.79371711     0.33700
H2486       H  0.32883959  0.12184206  0.81200017     0.38200
H2487       H  0.42386934  0.14842507  0.77399515     0.33600
H2488       H  0.41980215  0.13021487  0.75403196     0.30300
H2489       H  0.38516678  0.07379477  0.72579319     0.33600
H2490       H  0.39769292  0.08789420  0.74555101     0.30300
H2491       H  0.35555375  0.16655412  0.68480744     0.38200
H2492       H  0.36993054  0.17987437  0.70375163     0.33700
C2493       C  0.30922510  0.12390714  0.62462347    -0.20100
C2494       C  0.29718947  0.10511687  0.63044069     0.36100
C2495       C  0.27427992  0.10578517  0.62989347    -0.26000
C2496       C  0.26313592  0.12481080  0.62399966     0.02600
C2497       C  0.27500237  0.14355017  0.61830341     0.27400
C2498       C  0.29787420  0.14293798  0.61874472    -0.25200
N2499       N  0.30812836  0.08553780  0.63715463    -0.82600
H2500       H  0.26499268  0.09146738  0.63434663     0.13200
C2501       C  0.23898120  0.12478032  0.62372051     0.02600
N2502       N  0.26375372  0.16303861  0.61184389    -0.81100
H2503       H  0.30686641  0.15738539  0.61414398     0.18000
C2504       C  0.22749182  0.13766597  0.63871514    -0.26000
C2505       C  0.20456194  0.13770339  0.63910539     0.36100
C2506       C  0.19299628  0.12439464  0.62432617    -0.20000
C2507       C  0.20455727  0.11183075  0.60908510    -0.25200
C2508       C  0.22744208  0.11192293  0.60861135     0.27400
H2509       H  0.23648093  0.14771135  0.65011842     0.13200
N2510       N  0.19300768  0.15152952  0.65407875    -0.82500
H2511       H  0.19567769  0.10179590  0.59758438     0.18000
N2512       N  0.23905465  0.09913484  0.59278356    -0.81100
H2513       H  0.20393185  0.16030519  0.66376499     0.33700
H2514       H  0.18438462  0.16298744  0.64488818     0.38200
H2515       H  0.22818462  0.09053609  0.58289303     0.33600
H2516       H  0.24740828  0.10991046  0.58258716     0.30300
H2517       H  0.27484814  0.17542154  0.60823347     0.33600
H2518       H  0.25540239  0.15961195  0.59738674     0.30300
H2519       H  0.31597903  0.08886089  0.65189952     0.38200
H2520       H  0.29687219  0.07317134  0.64037009     0.33700
C2521       C  0.37989851  0.12769914  0.30672696    -0.20100
C2522       C  0.36833171  0.14343002  0.29456330     0.36100
C2523       C  0.36902607  0.14269728  0.27170359    -0.26000
C2524       C  0.38073069  0.12642208  0.26074546     0.02600
C2525       C  0.39235895  0.11073973  0.27282376     0.27400
C2526       C  0.39181937  0.11153794  0.29571518    -0.25200
N2527       N  0.35544545  0.15971435  0.30541056    -0.82600
H2528       H  0.36015980  0.15472690  0.26231610     0.13200
C2529       C  0.38023672  0.12585381  0.23659459     0.02600
N2530       N  0.40441598  0.09395178  0.26179282    -0.81100
H2531       H  0.40071545  0.09946774  0.30501936     0.18000
C2532       C  0.39964375  0.12842251  0.22486828    -0.26000
C2533       C  0.39966721  0.12889426  0.20195136     0.36100
C2534       C  0.37978535  0.12612586  0.19048982    -0.20000
C2535       C  0.36040523  0.12349969  0.20244237    -0.25200
C2536       C  0.36041842  0.12339502  0.22529485     0.27400
H2537       H  0.41477636  0.13061956  0.23369818     0.13200
N2538       N  0.41974583  0.13253712  0.19046595    -0.82500
H2539       H  0.34506781  0.12143609  0.19396245     0.18000
N2540       N  0.34037362  0.12073477  0.23711577    -0.81100
H2541       H  0.43283741  0.13347160  0.20133698     0.33700
H2542       H  0.41863377  0.14780216  0.18303062     0.38200
H2543       H  0.32719002  0.11938422  0.22640645     0.33600
H2544       H  0.34132223  0.10601358  0.24558947     0.30300
H2545       H  0.41217577  0.08378965  0.27303776     0.33600
H2546       H  0.39323642  0.08427241  0.25334265     0.30300
H2547       H  0.34280102  0.15170504  0.31353335     0.38200
H2548       H  0.34808814  0.17007546  0.29408595     0.33700
C2549       C  0.37504979  0.12533967  0.44079405    -0.20100
C2550       C  0.39206234  0.13483290  0.45298403     0.36100
C2551       C  0.39164245  0.13345643  0.47582705    -0.26000
C2552       C  0.37440238  0.12313670  0.48660715     0.02600
C2553       C  0.35724464  0.11387547  0.47447931     0.27400
C2554       C  0.35789241  0.11480911  0.45158390    -0.25200
N2555       N  0.41003704  0.14515642  0.44210425    -0.82600
H2556       H  0.40470389  0.14060007  0.48532161     0.13200
C2557       C  0.37425519  0.12292999  0.51068256     0.02600
N2558       N  0.33906672  0.10405018  0.48547303    -0.81100
H2559       H  0.34483668  0.10762134  0.44211308     0.18000
C2560       C  0.36494062  0.14052305  0.52178028    -0.26000
C2561       C  0.36507731  0.14147058  0.54465194     0.36100
C2562       C  0.37494286  0.12442908  0.55666497    -0.20000
C2563       C  0.38415523  0.10672666  0.54539164    -0.25200
C2564       C  0.38400333  0.10587133  0.52248814     0.27400
H2565       H  0.35754104  0.15357888  0.51249521     0.13200
N2566       N  0.35502522  0.15956016  0.55564006    -0.82500
H2567       H  0.39183387  0.09368740  0.55445909     0.18000
N2568       N  0.39416922  0.08807176  0.51114754    -0.81100
H2569       H  0.34892728  0.17080281  0.54440636     0.33700
H2570       H  0.34160046  0.15355475  0.56422048     0.38200
H2571       H  0.40100063  0.07707944  0.52221613     0.33600
H2572       H  0.38201569  0.07960257  0.50277271     0.30300
H2573       H  0.32762091  0.09841263  0.47418571     0.33600
H2574       H  0.34479978  0.09037973  0.49381734     0.30300
H2575       H  0.40412025  0.15921862  0.43457898     0.38200
H2576       H  0.42169002  0.15032706  0.45340831     0.33700
C2577       C  0.69295970  0.12808516  0.62819447    -0.20100
C2578       C  0.70521171  0.14704098  0.63309968     0.36100
C2579       C  0.72808097  0.14609786  0.63252196    -0.26000
C2580       C  0.73887479  0.12661158  0.62771033     0.02600
C2581       C  0.72684339  0.10763730  0.62337160     0.27400
C2582       C  0.70401817  0.10854290  0.62366003    -0.25200
N2583       N  0.69452474  0.16707464  0.63886601    -0.82600
H2584       H  0.73758727  0.16053709  0.63607045     0.13200
C2585       C  0.76288933  0.12618765  0.62729760     0.02600
N2586       N  0.73792180  0.08758225  0.61851698    -0.81100
H2587       H  0.69485425  0.09394550  0.61992514     0.18000
C2588       C  0.77409726  0.11605769  0.64436309    -0.26000
C2589       C  0.79692926  0.11470583  0.64425863     0.36100
C2590       C  0.80872135  0.12404216  0.62681623    -0.20000
C2591       C  0.79733629  0.13403719  0.60964749    -0.25200
C2592       C  0.77449003  0.13512174  0.60968839     0.27400
H2593       H  0.76492737  0.10897314  0.65766964     0.13200
N2594       N  0.80808598  0.10350261  0.66153421    -0.82500
H2595       H  0.80629086  0.14115541  0.59621905     0.18000
N2596       N  0.76297607  0.14513517  0.59192441    -0.81100
H2597       H  0.79700208  0.09777296  0.67311783     0.33700
H2598       H  0.81555170  0.08977269  0.65474785     0.38200
H2599       H  0.77392753  0.15100492  0.58027704     0.33600
H2600       H  0.75377960  0.13303865  0.58424631     0.30300
H2601       H  0.72670683  0.07504600  0.61585350     0.33600
H2602       H  0.74635637  0.08973216  0.60388890     0.30300
H2603       H  0.68660385  0.16457149  0.65372259     0.38200
H2604       H  0.70593658  0.17944022  0.64154276     0.33700
C2605       C  0.62620389  0.12320900  0.80719207    -0.20100
C2606       C  0.64332607  0.11404680  0.79477173     0.36100
C2607       C  0.64241536  0.11504857  0.77189071    -0.26000
C2608       C  0.62470384  0.12479312  0.76125883     0.02600
C2609       C  0.60754536  0.13372750  0.77357421     0.27400
C2610       C  0.60837582  0.13269010  0.79640326    -0.25200
N2611       N  0.66136465  0.10350019  0.80535717    -0.82600
H2612       H  0.65547951  0.10809485  0.76225541     0.13200
C2613       C  0.62441144  0.12589000  0.73717135     0.02600
N2614       N  0.58952865  0.14412109  0.76280504    -0.81100
H2615       H  0.59524612  0.13979013  0.80583256     0.18000
C2616       C  0.60876952  0.11393826  0.72557156    -0.26000
C2617       C  0.60786389  0.11482980  0.70270895     0.36100
C2618       C  0.62290748  0.12794903  0.69136045    -0.20000
C2619       C  0.63828443  0.14019821  0.70299769    -0.25200
C2620       C  0.63925714  0.13920932  0.72584613     0.27400
H2621       H  0.59728057  0.10389682  0.73442140     0.13200
N2622       N  0.59161399  0.10270613  0.69097464    -0.82500
H2623       H  0.64985024  0.15019316  0.69419133     0.18000
N2624       N  0.65522894  0.15163383  0.73763255    -0.81100
H2625       H  0.58181284  0.09389782  0.70174307     0.33700
H2626       H  0.58141471  0.11392063  0.68320267     0.38200
H2627       H  0.66502690  0.16046718  0.72688509     0.33600
H2628       H  0.64689076  0.16304419  0.74715224     0.30300
H2629       H  0.57823101  0.14984750  0.77419311     0.33600
H2630       H  0.59559217  0.15779590  0.75468748     0.30300
H2631       H  0.65528648  0.08978818  0.81339307     0.38200
H2632       H  0.67258353  0.09780449  0.79386577     0.33700
C2633       C  0.55903895  0.12914055  0.62120164    -0.20100
C2634       C  0.54713119  0.11614837  0.60643749     0.36100
C2635       C  0.52423719  0.11679831  0.60690908    -0.26000
C2636       C  0.51322726  0.13012077  0.62185257     0.02600
C2637       C  0.52510815  0.14332474  0.63635216     0.27400
C2638       C  0.54795329  0.14278919  0.63580530    -0.25200
N2639       N  0.55830904  0.10261157  0.59091926    -0.82600
H2640       H  0.51490994  0.10681919  0.59571966     0.13200
C2641       C  0.48918641  0.12988623  0.62237670     0.02600
N2642       N  0.51388192  0.15705973  0.65165051    -0.81100
H2643       H  0.55717519  0.15275082  0.64709976     0.18000
C2644       C  0.47856557  0.11865170  0.63915364    -0.26000
C2645       C  0.45571175  0.11779569  0.64002618     0.36100
C2646       C  0.44342853  0.12835674  0.62374855    -0.20000
C2647       C  0.45407354  0.14005355  0.60728871    -0.25200
C2648       C  0.47692628  0.14084621  0.60639132     0.27400
H2649       H  0.48817148  0.11051947  0.65153129     0.13200
N2650       N  0.44491512  0.10656097  0.65749230    -0.82500
H2651       H  0.44451510  0.14828207  0.59493714     0.18000
N2652       N  0.48777117  0.15262038  0.58932752    -0.81100
H2653       H  0.45632202  0.09971860  0.66813199     0.33700
H2654       H  0.43622141  0.11813085  0.66649482     0.38200
H2655       H  0.47639113  0.15963016  0.57876659     0.33600
H2656       H  0.49627674  0.16547421  0.59656536     0.30300
H2657       H  0.52501053  0.16556808  0.66133197     0.33600
H2658       H  0.50525428  0.16872373  0.64272849     0.30300
H2659       H  0.56696612  0.11284878  0.58043061     0.38200
H2660       H  0.54713898  0.09411076  0.58126672     0.33700
C2661       C  0.62415606  0.13118608  0.19174919    -0.20100
C2662       C  0.60486308  0.13550761  0.20371673     0.36100
C2663       C  0.60554479  0.13530009  0.22659476    -0.26000
C2664       C  0.62495820  0.13098106  0.23778785     0.02600
C2665       C  0.64431976  0.12748559  0.22599339     0.27400
C2666       C  0.64369802  0.12748869  0.20316078    -0.25200
N2667       N  0.58467131  0.14019227  0.19280049    -0.82600
H2668       H  0.59071713  0.13801242  0.23578798     0.13200
C2669       C  0.62470171  0.12946475  0.26186789     0.02600
N2670       N  0.66454162  0.12396441  0.23729965    -0.81100
H2671       H  0.65862940  0.12441840  0.19427087     0.18000
C2672       C  0.63180732  0.11017846  0.27180360    -0.26000
C2673       C  0.63251383  0.10817074  0.29456958     0.36100
C2674       C  0.62535770  0.12571549  0.30769138    -0.20000
C2675       C  0.61788319  0.14487973  0.29763006    -0.25200
C2676       C  0.61760577  0.14698862  0.27487527     0.27400
H2677       H  0.63709637  0.09670821  0.26168331     0.13200
N2678       N  0.64090074  0.08858986  0.30428122    -0.82500
H2679       H  0.61232296  0.15837488  0.30755985     0.18000
N2680       N  0.61041341  0.16692246  0.26493133    -0.81100
H2681       H  0.64505204  0.07721574  0.29230493     0.33700
H2682       H  0.65539219  0.09263830  0.31229430     0.38200
H2683       H  0.60559231  0.17816576  0.27679900     0.33600
H2684       H  0.62375855  0.17374469  0.25687314     0.30300
H2685       H  0.67728382  0.12154627  0.22625052     0.33600
H2686       H  0.66817133  0.13819760  0.24591308     0.30300
H2687       H  0.57908657  0.12564341  0.18596191     0.38200
H2688       H  0.57275397  0.14499948  0.20399704     0.33700
C2689       C  0.44418036  0.12760202  0.37718460    -0.20100
C2690       C  0.45595742  0.14351935  0.38898885     0.36100
C2691       C  0.47884328  0.14245255  0.38948033    -0.26000
C2692       C  0.49015301  0.12623869  0.37798655     0.02600
C2693       C  0.47840590  0.11054404  0.36603591     0.27400
C2694       C  0.45556593  0.11118910  0.36605779    -0.25200
N2695       N  0.44474651  0.16024755  0.40097100    -0.82600
H2696       H  0.48795297  0.15438023  0.39877606     0.13200
C2697       C  0.51432055  0.12596479  0.37829101     0.02600
N2698       N  0.48975573  0.09422466  0.35363238    -0.81100
H2699       H  0.44658562  0.09908947  0.35686134     0.18000
C2700       C  0.52524017  0.10722653  0.38546986    -0.26000
C2701       C  0.54809943  0.10596458  0.38519575     0.36100
C2702       C  0.56030767  0.12393890  0.37758923    -0.20000
C2703       C  0.54928106  0.14282561  0.37079959    -0.25200
C2704       C  0.52645024  0.14396975  0.37091195     0.27400
H2705       H  0.51582418  0.09352696  0.39135730     0.13200
N2706       N  0.55884329  0.08660847  0.39281339    -0.82500
H2707       H  0.55849384  0.15664845  0.36489247     0.18000
N2708       N  0.51552151  0.16317745  0.36317015    -0.81100
H2709       H  0.54746117  0.07483605  0.39740644     0.33700
H2710       H  0.56748885  0.09074866  0.40691401     0.38200
H2711       H  0.52681094  0.17498817  0.35839980     0.33600
H2712       H  0.50677775  0.15886542  0.34920080     0.30300
H2713       H  0.47873013  0.08387059  0.34580320     0.33600
H2714       H  0.49846585  0.10219446  0.34137279     0.30300
H2715       H  0.43803616  0.17102955  0.38964555     0.38200
H2716       H  0.45576204  0.16940121  0.41019397     0.33700
C2717       C  0.63056492  0.12305122  0.44161648    -0.20100
C2718       C  0.64102790  0.10630767  0.45343463     0.36100
C2719       C  0.64139505  0.10731179  0.47631239    -0.26000
C2720       C  0.63160021  0.12468046  0.48751721     0.02600
C2721       C  0.62140153  0.14149581  0.47569469     0.27400
C2722       C  0.62113910  0.14057443  0.45289269    -0.25200
N2723       N  0.65153901  0.08861165  0.44224045    -0.82600
H2724       H  0.64946836  0.09458399  0.48548731     0.13200
C2725       C  0.63171025  0.12494246  0.51165703     0.02600
N2726       N  0.61104526  0.15926621  0.48692099    -0.81100
H2727       H  0.61309543  0.15343308  0.44387780     0.18000
C2728       C  0.64063915  0.14286728  0.52267608    -0.26000
C2729       C  0.64003779  0.14422777  0.54551749     0.36100
C2730       C  0.63027659  0.12723924  0.55754836    -0.20000
C2731       C  0.62187881  0.10905251  0.54647123    -0.25200
C2732       C  0.62233671  0.10779906  0.52365766     0.27400
H2733       H  0.64810987  0.15584652  0.51336187     0.13200
N2734       N  0.64954296  0.16261034  0.55647680    -0.82500
H2735       H  0.61440186  0.09597127  0.55563065     0.18000
N2736       N  0.61293465  0.08940843  0.51260610    -0.81100
H2737       H  0.65579761  0.17373640  0.54519046     0.33700
H2738       H  0.66279227  0.15692595  0.56551680     0.38200
H2739       H  0.60682151  0.07816022  0.52381803     0.33600
H2740       H  0.59962060  0.09503565  0.50359792     0.30300
H2741       H  0.60444247  0.17036476  0.47582591     0.33600
H2742       H  0.59798026  0.15288286  0.49576664     0.30300
H2743       H  0.66456029  0.09511471  0.43340097     0.38200
H2744       H  0.65827113  0.07763111  0.45337167     0.33700
C2745       C  0.12516530  0.62628905  0.69163821    -0.20100
C2746       C  0.14393713  0.62992647  0.70458265     0.36100
C2747       C  0.14227187  0.62869195  0.72734678    -0.26000
C2748       C  0.12225835  0.62460485  0.73743759     0.02600
C2749       C  0.10338225  0.62187482  0.72475178     0.27400
C2750       C  0.10502180  0.62266605  0.70197416    -0.25200
N2751       N  0.16455081  0.63504825  0.69472178    -0.82600
H2752       H  0.15659618  0.63123039  0.73736109     0.13200
C2753       C  0.12134849  0.62375977  0.76142787     0.02600
N2754       N  0.08270246  0.61812787  0.73507628    -0.81100
H2755       H  0.09050010  0.62006399  0.69228803     0.18000
C2756       C  0.11113409  0.64070577  0.77271193    -0.26000
C2757       C  0.11124391  0.64137243  0.79556683     0.36100
C2758       C  0.12147100  0.62435940  0.80734879    -0.20000
C2759       C  0.13114403  0.60705345  0.79586126    -0.25200
C2760       C  0.13130646  0.60667401  0.77298711     0.27400
H2761       H  0.10352528  0.65375759  0.76358775     0.13200
N2762       N  0.10071364  0.65909179  0.80670543    -0.82500
H2763       H  0.13895340  0.59396593  0.80474642     0.18000
N2764       N  0.14164905  0.58913590  0.76139744    -0.81100
H2765       H  0.09213209  0.66883035  0.79568414     0.33700
H2766       H  0.11294867  0.66903471  0.81313364     0.38200
H2767       H  0.14835411  0.57791083  0.77229193     0.33600
H2768       H  0.12955884  0.58088311  0.75267768     0.30300
H2769       H  0.07036398  0.61664074  0.72342715     0.33600
H2770       H  0.08362533  0.60317469  0.74315053     0.30300
H2771       H  0.16297201  0.65027716  0.68728425     0.38200
H2772       H  0.17667611  0.63672894  0.70657319     0.33700
C2773       C  0.12761308  0.69037089  0.62094058    -0.20100
C2774       C  0.14665317  0.70253036  0.61618537     0.36100
C2775       C  0.14573922  0.72539866  0.61638676    -0.26000
C2776       C  0.12625699  0.73633824  0.62086424     0.02600
C2777       C  0.10716910  0.72443895  0.62508100     0.27400
C2778       C  0.10800303  0.70158465  0.62501353    -0.25200
N2779       N  0.16680418  0.69174842  0.61104904    -0.82600
H2780       H  0.16027993  0.73480261  0.61299553     0.13200
C2781       C  0.12619768  0.76035601  0.62148535     0.02600
N2782       N  0.08707371  0.73564798  0.62950208    -0.81100
H2783       H  0.09329993  0.69252591  0.62857950     0.18000
C2784       C  0.11990290  0.77197175  0.60293000    -0.26000
C2785       C  0.11970427  0.79485021  0.60292547     0.36100
C2786       C  0.12608451  0.80627103  0.62197068    -0.20000
C2787       C  0.13231681  0.79442773  0.64054438    -0.25200
C2788       C  0.13246714  0.77157512  0.64045990     0.27400
H2789       H  0.11506281  0.76310586  0.58844230     0.13200
N2790       N  0.11284398  0.80640531  0.58374348    -0.82500
H2791       H  0.13733367  0.80301021  0.65513376     0.18000
N2792       N  0.13918718  0.75966092  0.65945814    -0.81100
H2793       H  0.10921494  0.79556525  0.57111674     0.33700
H2794       H  0.09831140  0.81446576  0.58752720     0.38200
H2795       H  0.14361775  0.77033414  0.67197566     0.33600
H2796       H  0.12571943  0.75091498  0.66509024     0.30300
H2797       H  0.07445904  0.72451878  0.63208843     0.33600
H2798       H  0.08902376  0.74424277  0.64408259     0.30300
H2799       H  0.16462182  0.68362363  0.59623584     0.38200
H2800       H  0.17925020  0.70309135  0.60852492     0.33700
C2801       C  0.12507373  0.62598411  0.30818630    -0.20100
C2802       C  0.13998180  0.61282734  0.29659914     0.36100
C2803       C  0.13970082  0.61297081  0.27371984    -0.26000
C2804       C  0.12464857  0.62574317  0.26230894     0.02600
C2805       C  0.10965082  0.63877754  0.27379746     0.27400
C2806       C  0.10987627  0.63863818  0.29670721    -0.25200
N2807       N  0.15495666  0.59898004  0.30811779    -0.82600
H2808       H  0.15102933  0.60285791  0.26470503     0.13200
C2809       C  0.12449906  0.62493839  0.23825493     0.02600
N2810       N  0.09432150  0.65206395  0.26210796    -0.81100
H2811       H  0.09843272  0.64869646  0.30563729     0.18000
C2812       C  0.10900574  0.61196825  0.22764693    -0.26000
C2813       C  0.10849025  0.61054205  0.20478593     0.36100
C2814       C  0.12364203  0.62261859  0.19241780    -0.20000
C2815       C  0.13901734  0.63574635  0.20311970    -0.25200
C2816       C  0.13970608  0.63688929  0.22597573     0.27400
H2817       H  0.09733559  0.60290447  0.23728338     0.13200
N2818       N  0.09208573  0.59766579  0.19412974    -0.82500
H2819       H  0.15057790  0.64505439  0.19358248     0.18000
N2820       N  0.15573653  0.65009059  0.23679865    -0.81100
H2821       H  0.08139901  0.59098915  0.20557514     0.33700
H2822       H  0.09990474  0.58450492  0.18668000     0.38200
H2823       H  0.16585209  0.65769378  0.22541402     0.33600
H2824       H  0.14749012  0.66249544  0.24506320     0.30300
H2825       H  0.08434643  0.66061157  0.27296042     0.33600
H2826       H  0.10318806  0.66372363  0.25344883     0.30300
H2827       H  0.14577577  0.58740642  0.31657348     0.38200
H2828       H  0.16477225  0.59034955  0.29718755     0.33700
C2829       C  0.12743106  0.62352641  0.44186454    -0.20100
C2830       C  0.11423691  0.60865411  0.45330806     0.36100
C2831       C  0.11513878  0.60821576  0.47612013    -0.26000
C2832       C  0.12880470  0.62244837  0.48762807     0.02600
C2833       C  0.14209433  0.63724970  0.47617824     0.27400
C2834       C  0.14149310  0.63741742  0.45332488    -0.25200
N2835       N  0.10029769  0.59381994  0.44171577    -0.82600
H2836       H  0.10520506  0.59667433  0.48501856     0.13200
C2837       C  0.12878764  0.62176439  0.51170157     0.02600
N2838       N  0.15581634  0.65224787  0.48781551    -0.81100
H2839       H  0.15160888  0.64879872  0.44442209     0.18000
C2840       C  0.14822386  0.61732380  0.52282332    -0.26000
C2841       C  0.14878448  0.61635004  0.54567705     0.36100
C2842       C  0.12943199  0.62024446  0.55763705    -0.20000
C2843       C  0.10993637  0.62432490  0.54629889    -0.25200
C2844       C  0.10942855  0.62519335  0.52350789     0.27400
H2845       H  0.16296032  0.61432776  0.51356991     0.13200
N2846       N  0.16886501  0.61126124  0.55661728    -0.82500
H2847       H  0.09500765  0.62729888  0.55522550     0.18000
N2848       N  0.08938685  0.62983579  0.51228259    -0.81100
H2849       H  0.18156362  0.60946967  0.54541532     0.33700
H2850       H  0.16689581  0.59609366  0.56409139     0.38200
H2851       H  0.07657518  0.63176109  0.52334353     0.33600
H2852       H  0.09125964  0.64476573  0.50434722     0.30300
H2853       H  0.16455503  0.66200938  0.47695071     0.33600
H2854       H  0.14568451  0.66268418  0.49668699     0.30300
H2855       H  0.11027694  0.58337537  0.43265552     0.38200
H2856       H  0.09161342  0.58403885  0.45258710     0.33700
C2857       C  0.12324689  0.30503590  0.62322426    -0.20100
C2858       C  0.14202794  0.29249870  0.62799333     0.36100
C2859       C  0.14097068  0.26974250  0.62651919    -0.26000
C2860       C  0.12156134  0.25925069  0.62090197     0.02600
C2861       C  0.10276264  0.27150234  0.61635588     0.27400
C2862       C  0.10377333  0.29429899  0.61756596    -0.25200
N2863       N  0.16199291  0.30276016  0.63466340    -0.82600
H2864       H  0.15525773  0.26003243  0.63018891     0.13200
C2865       C  0.12123273  0.23529290  0.62050606     0.02600
N2866       N  0.08281983  0.26072507  0.61047380    -0.81100
H2867       H  0.08931209  0.30369711  0.61382616     0.18000
C2868       C  0.11102776  0.22412082  0.63753617    -0.26000
C2869       C  0.11185135  0.20131885  0.63867302     0.36100
C2870       C  0.12310183  0.18960788  0.62230767    -0.20000
C2871       C  0.13297217  0.20092026  0.60507936    -0.25200
C2872       C  0.13221223  0.22369736  0.60406834     0.27400
H2873       H  0.10268392  0.23328573  0.65012121     0.13200
N2874       N  0.10121555  0.19009386  0.65625032    -0.82500
H2875       H  0.14159743  0.19197683  0.59253119     0.18000
N2876       N  0.14272025  0.23517026  0.58659090    -0.81100
H2877       H  0.09400936  0.20117282  0.66700292     0.33700
H2878       H  0.08853787  0.18090449  0.64954421     0.38200
H2879       H  0.15032606  0.22424190  0.57595483     0.33600
H2880       H  0.13059266  0.24306762  0.57761508     0.30300
H2881       H  0.07043573  0.27210310  0.60775132     0.33600
H2882       H  0.08544621  0.25274090  0.59565291     0.30300
H2883       H  0.15921637  0.30993757  0.64986765     0.38200
H2884       H  0.17427469  0.29118438  0.63698326     0.33700
C2885       C  0.12373956  0.37138439  0.69134658    -0.20100
C2886       C  0.14216720  0.36454703  0.70353126     0.36100
C2887       C  0.14097759  0.36388734  0.72640459    -0.26000
C2888       C  0.12201621  0.37012115  0.73739654     0.02600
C2889       C  0.10362101  0.37679338  0.72547561     0.27400
C2890       C  0.10464175  0.37735115  0.70259090    -0.25200
N2891       N  0.16189057  0.35787901  0.69279313    -0.82600
H2892       H  0.15502566  0.35875066  0.73579057     0.13200
C2893       C  0.12187654  0.37003965  0.76149794     0.02600
N2894       N  0.08402174  0.38299605  0.73670388    -0.81100
H2895       H  0.09043508  0.38257171  0.69351336     0.18000
C2896       C  0.12485923  0.38966424  0.77267854    -0.26000
C2897       C  0.12516537  0.39035924  0.79557906     0.36100
C2898       C  0.12256527  0.37079196  0.80759223    -0.20000
C2899       C  0.11969422  0.35111594  0.79612687    -0.25200
C2900       C  0.11922431  0.35058252  0.77323450     0.27400
H2901       H  0.12696706  0.40452976  0.76342408     0.13200
N2902       N  0.12847323  0.41082662  0.80647370    -0.82500
H2903       H  0.11764995  0.33603831  0.80502357     0.18000
N2904       N  0.11613365  0.33037646  0.76181241    -0.81100
H2905       H  0.13194191  0.42311938  0.79523140     0.33700
H2906       H  0.11369316  0.41517089  0.81374060     0.38200
H2907       H  0.11461739  0.31748270  0.77281490     0.33600
H2908       H  0.10133321  0.33139596  0.75344102     0.30300
H2909       H  0.07197515  0.38763161  0.72558623     0.33600
H2910       H  0.07813254  0.36922097  0.74476718     0.30300
H2911       H  0.16921249  0.37187563  0.68649034     0.38200
H2912       H  0.17298526  0.35147832  0.70402640     0.33700
C2913       C  0.12351780  0.43954909  0.62425245    -0.20100
C2914       C  0.10451545  0.45181607  0.62899313     0.36100
C2915       C  0.10586266  0.47461348  0.63039440    -0.26000
C2916       C  0.12534759  0.48568517  0.62598245     0.02600
C2917       C  0.14414274  0.47357155  0.62060790     0.27400
C2918       C  0.14311152  0.45070426  0.62017138    -0.25200
N2919       N  0.08391328  0.44126149  0.63252550    -0.82600
H2920       H  0.09147083  0.48388717  0.63469859     0.13200
C2921       C  0.12560785  0.50996077  0.62653235     0.02600
N2922       N  0.16413622  0.48453422  0.61530442    -0.81100
H2923       H  0.15769905  0.44157250  0.61625729     0.18000
C2924       C  0.14133711  0.52090362  0.63908225    -0.26000
C2925       C  0.14225652  0.54380080  0.63963694     0.36100
C2926       C  0.12692094  0.55600997  0.62759332    -0.20000
C2927       C  0.11086361  0.54507606  0.61555334    -0.25200
C2928       C  0.11021915  0.52224795  0.61461910     0.27400
H2929       H  0.15286959  0.51152091  0.64858981     0.13200
N2930       N  0.15845653  0.55464560  0.65262255    -0.82500
H2931       H  0.09913351  0.55442149  0.60624544     0.18000
N2932       N  0.09425412  0.51151041  0.60124854    -0.81100
H2933       H  0.16853252  0.54330908  0.66035953     0.33700
H2934       H  0.15033095  0.56315428  0.66495482     0.38200
H2935       H  0.08408540  0.52286811  0.59366152     0.33600
H2936       H  0.10257720  0.50333280  0.58883520     0.30300
H2937       H  0.17644447  0.47329166  0.61179496     0.33600
H2938       H  0.16147472  0.49344020  0.60104327     0.30300
H2939       H  0.07877742  0.43503735  0.61751481     0.38200
H2940       H  0.07204279  0.45255413  0.63719680     0.33700
C2941       C  0.12662622  0.38002388  0.30645461    -0.20100
C2942       C  0.14596435  0.38589779  0.29527483     0.36100
C2943       C  0.14597686  0.38639642  0.27241775    -0.26000
C2944       C  0.12708416  0.38158397  0.26067286     0.02600
C2945       C  0.10765436  0.37652005  0.27161809     0.27400
C2946       C  0.10760203  0.37572083  0.29442646    -0.25200
N2947       N  0.16545185  0.39143815  0.30704175    -0.82600
H2948       H  0.16077237  0.39042781  0.26367673     0.13200
C2949       C  0.12795057  0.38089488  0.23678642     0.02600
N2950       N  0.08819168  0.37187035  0.25942721    -0.81100
H2951       H  0.09268639  0.37140047  0.30279340     0.18000
C2952       C  0.12992277  0.36066764  0.22657179    -0.26000
C2953       C  0.12982327  0.35894104  0.20381306     0.36100
C2954       C  0.12700815  0.37798753  0.19105599    -0.20000
C2955       C  0.12552102  0.39833120  0.20155779    -0.25200
C2956       C  0.12605975  0.39995740  0.22433653     0.27400
H2957       H  0.13162424  0.34616947  0.23648347     0.13200
N2958       N  0.13267908  0.33795318  0.19379990    -0.82500
H2959       H  0.12374623  0.41305249  0.19202476     0.18000
N2960       N  0.12460685  0.42080541  0.23490758    -0.81100
H2961       H  0.13356253  0.32570109  0.20559442     0.33700
H2962       H  0.14779118  0.33805825  0.18595634     0.38200
H2963       H  0.12354976  0.43327841  0.22336859     0.33600
H2964       H  0.11007379  0.42114174  0.24376496     0.30300
H2965       H  0.07528740  0.36822454  0.26992536     0.33600
H2966       H  0.08379559  0.38604665  0.25110667     0.30300
H2967       H  0.16235051  0.40587595  0.31554733     0.38200
H2968       H  0.17823025  0.39480778  0.29631045     0.33700
C2969       C  0.12875528  0.55890915  0.37497705    -0.20100
C2970       C  0.14631890  0.54736923  0.38445463     0.36100
C2971       C  0.14584609  0.52448369  0.38475034    -0.26000
C2972       C  0.12831623  0.51294174  0.37569005     0.02600
C2973       C  0.11097683  0.52445411  0.36597960     0.27400
C2974       C  0.11125397  0.54727592  0.36597550    -0.25200
N2975       N  0.16432249  0.55883350  0.39411102    -0.82600
H2976       H  0.15906135  0.51557698  0.39234245     0.13200
C2977       C  0.12818199  0.48879005  0.37641616     0.02600
N2978       N  0.09328046  0.51288132  0.35589984    -0.81100
H2979       H  0.09785324  0.55603425  0.35854261     0.18000
C2980       C  0.11038022  0.47803181  0.38587709    -0.26000
C2981       C  0.10898880  0.45520839  0.38584321     0.36100
C2982       C  0.12592889  0.44287422  0.37629868    -0.20000
C2983       C  0.14404688  0.45367283  0.36743995    -0.25200
C2984       C  0.14525451  0.47649300  0.36719542     0.27400
H2985       H  0.09746639  0.48754616  0.39326318     0.13200
N2986       N  0.09056927  0.44458851  0.39563740    -0.82500
H2987       H  0.15706574  0.44427531  0.36009440     0.18000
N2988       N  0.16349477  0.48722576  0.35719208    -0.81100
H2989       H  0.07948608  0.45604396  0.40164312     0.33700
H2990       H  0.09626000  0.43583326  0.40909278     0.38200
H2991       H  0.17467125  0.47582913  0.35123726     0.33600
H2992       H  0.15764341  0.49580904  0.34370291     0.30300
H2993       H  0.08179509  0.52373951  0.34956400     0.33600
H2994       H  0.09965100  0.50424619  0.34266267     0.30300
H2995       H  0.15836931  0.56730568  0.40764970     0.38200
H2996       H  0.17598867  0.54790336  0.39997665     0.33700
C2997       C  0.12240839  0.37429487  0.44029798    -0.20100
C2998       C  0.10523251  0.36440815  0.45195955     0.36100
C2999       C  0.10562496  0.36464072  0.47484269    -0.26000
C3000       C  0.12264511  0.37473624  0.48630274     0.02600
C3001       C  0.13957820  0.38498045  0.47464291     0.27400
C3002       C  0.13941550  0.38440876  0.45178025    -0.25200
N3003       N  0.08770621  0.35379865  0.44059928    -0.82600
H3004       H  0.09276290  0.35658270  0.48382715     0.13200
C3005       C  0.12274836  0.37401976  0.51050099     0.02600
N3006       N  0.15672772  0.39611515  0.48607346    -0.81100
H3007       H  0.15244562  0.39227942  0.44286290     0.18000
C3008       C  0.14087700  0.36530006  0.52135221    -0.26000
C3009       C  0.14159392  0.36413292  0.54421113     0.36100
C3010       C  0.12370809  0.37190856  0.55653524    -0.20000
C3011       C  0.10540859  0.38022461  0.54557367    -0.25200
C3012       C  0.10482082  0.38155944  0.52273854     0.27400
H3013       H  0.15444154  0.35911902  0.51188464     0.13200
N3014       N  0.16026623  0.35478825  0.55483421    -0.82500
H3015       H  0.09166975  0.38624187  0.55488105     0.18000
N3016       N  0.08623712  0.39086902  0.51193658    -0.81100
H3017       H  0.17206409  0.35024112  0.54341795     0.33700
H3018       H  0.15516668  0.34046324  0.56247934     0.38200
H3019       H  0.07439206  0.39552453  0.52326277     0.33600
H3020       H  0.09140468  0.40509012  0.50416155     0.30300
H3021       H  0.16793447  0.40273956  0.47510379     0.33600
H3022       H  0.14970027  0.40921315  0.49439675     0.30300
H3023       H  0.09427518  0.34040940  0.43234941     0.38200
H3024       H  0.07628453  0.34762639  0.45159834     0.33700
C3025       C  0.80774429  0.87313566  0.37644813    -0.20100
C3026       C  0.79516076  0.87118892  0.39574276     0.36100
C3027       C  0.77239851  0.86998468  0.39421864    -0.26000
C3028       C  0.76183532  0.87084831  0.37403293     0.02600
C3029       C  0.77420506  0.87265854  0.35479929     0.27400
C3030       C  0.79699571  0.87379629  0.35620085    -0.25200
N3031       N  0.80533401  0.87046122  0.41684013    -0.82600
H3032       H  0.76273548  0.86888649  0.40895251     0.13200
C3033       C  0.73773192  0.87085529  0.37350892     0.02600
N3034       N  0.76355257  0.87327231  0.33394010    -0.81100
H3035       H  0.80637175  0.87517545  0.34132112     0.18000
C3036       C  0.72685693  0.88857336  0.36410211    -0.26000
C3037       C  0.70403421  0.88974014  0.36404401     0.36100
C3038       C  0.69186412  0.87304998  0.37416575    -0.20000
C3039       C  0.70280374  0.85517802  0.38334753    -0.25200
C3040       C  0.72562506  0.85386240  0.38304467     0.27400
H3041       H  0.73626430  0.90160765  0.35684851     0.13200
N3042       N  0.69324019  0.90760545  0.35343542    -0.82500
H3043       H  0.69352094  0.84224228  0.39092585     0.18000
N3044       N  0.73657557  0.83538169  0.39236247    -0.81100
H3045       H  0.70459986  0.91852219  0.34701188     0.33700
H3046       H  0.68462836  0.90124753  0.34016834     0.38200
H3047       H  0.72531106  0.82438838  0.39883482     0.33600
H3048       H  0.74463555  0.82726052  0.37973879     0.30300
H3049       H  0.77497231  0.87479578  0.32139528     0.33600
H3050       H  0.75578448  0.85830383  0.33166285     0.30300
H3051       H  0.81157658  0.88596832  0.42001986     0.38200
H3052       H  0.79381182  0.86745263  0.42902222     0.33700
C3053       C  0.87264317  0.80712948  0.37831498    -0.20100
C3054       C  0.87903511  0.79437464  0.36018704     0.36100
C3055       C  0.87635271  0.77171523  0.36091914    -0.26000
C3056       C  0.86775908  0.76154258  0.37938991     0.02600
C3057       C  0.86136978  0.77406534  0.39747918     0.27400
C3058       C  0.86393996  0.79676191  0.39680748    -0.25200
N3059       N  0.88855433  0.80433444  0.34126524    -0.82600
H3060       H  0.88140656  0.76181949  0.34718592     0.13200
C3061       C  0.86655335  0.73759308  0.37974344     0.02600
N3062       N  0.85222127  0.76365769  0.41634158    -0.81100
H3063       H  0.85879328  0.80640553  0.41067219     0.18000
C3064       C  0.88112824  0.72604376  0.39294325    -0.26000
C3065       C  0.88191021  0.70323703  0.39225200     0.36100
C3066       C  0.86796402  0.69194028  0.37786763    -0.20000
C3067       C  0.85279105  0.70350613  0.36529863    -0.25200
C3068       C  0.85197835  0.72632305  0.36608139     0.27400
H3069       H  0.89213085  0.73490470  0.40353842     0.13200
N3070       N  0.89659424  0.69150499  0.40623648    -0.82500
H3071       H  0.84186059  0.69473433  0.35455845     0.18000
N3072       N  0.83661990  0.73815616  0.35295761    -0.81100
H3073       H  0.90570098  0.70227318  0.41577729     0.33700
H3074       H  0.88715502  0.68230198  0.41702045     0.38200
H3075       H  0.82713404  0.72743909  0.34372187     0.33600
H3076       H  0.82596946  0.74622159  0.36353491     0.30300
H3077       H  0.84837514  0.77519247  0.42828032     0.33600
H3078       H  0.83752571  0.75646330  0.41161263     0.30300
H3079       H  0.90353758  0.81092316  0.34596023     0.38200
H3080       H  0.89193933  0.79265333  0.32932261     0.33700
C3081       C  0.87751762  0.19222051  0.37501458    -0.20100
C3082       C  0.88240843  0.20429319  0.35590857     0.36100
C3083       C  0.88243705  0.22716134  0.35674672    -0.26000
C3084       C  0.87736319  0.23828236  0.37599441     0.02600
C3085       C  0.87251775  0.22645609  0.39500431     0.27400
C3086       C  0.87267110  0.20358402  0.39434538    -0.25200
N3087       N  0.88757288  0.19348412  0.33576506    -0.82600
H3088       H  0.88612967  0.23644028  0.34220088     0.13200
C3089       C  0.87718069  0.26239417  0.37597364     0.02600
N3090       N  0.86759694  0.23776923  0.41492196    -0.81100
H3091       H  0.86888475  0.19461569  0.40904628     0.18000
C3092       C  0.85745056  0.27345208  0.37898032    -0.26000
C3093       C  0.85660926  0.29633532  0.37920488     0.36100
C3094       C  0.87602215  0.30844397  0.37598818    -0.20000
C3095       C  0.89574791  0.29713532  0.37292655    -0.25200
C3096       C  0.89652621  0.27428815  0.37300192     0.27400
H3097       H  0.84265306  0.26412153  0.38129298     0.13200
N3098       N  0.83615269  0.30714420  0.38289281    -0.82500
H3099       H  0.91072233  0.30612335  0.37049100     0.18000
N3100       N  0.91690398  0.26306978  0.37022624    -0.81100
H3101       H  0.82348345  0.29584797  0.38411962     0.33700
H3102       H  0.83713451  0.31489476  0.39804246     0.38200
H3103       H  0.92963543  0.27417552  0.36814033     0.33600
H3104       H  0.92014648  0.25464616  0.38465960     0.30300
H3105       H  0.86430099  0.22671611  0.42743613     0.33600
H3106       H  0.88155836  0.24633856  0.41956827     0.30300
H3107       H  0.87313643  0.18670708  0.32979434     0.38200
H3108       H  0.89263139  0.20471661  0.32402173     0.33700
C3109       C  0.80991852  0.12715030  0.37576771    -0.20100
C3110       C  0.79836018  0.13881874  0.35965318     0.36100
C3111       C  0.77549522  0.13871572  0.35998268    -0.26000
C3112       C  0.76414526  0.12739765  0.37617148     0.02600
C3113       C  0.77557823  0.11638350  0.39267607     0.27400
C3114       C  0.79842565  0.11639062  0.39234794    -0.25200
N3115       N  0.80984570  0.15092077  0.34323937    -0.82600
H3116       H  0.76644609  0.14736120  0.34753402     0.13200
C3117       C  0.74019702  0.12677884  0.37536704     0.02600
N3118       N  0.76388559  0.10505815  0.40949035    -0.81100
H3119       H  0.80729342  0.10762777  0.40484109     0.18000
C3120       C  0.72992947  0.10822071  0.36703397    -0.26000
C3121       C  0.70712518  0.10699865  0.36576970     0.36100
C3122       C  0.69443494  0.12469516  0.37334202    -0.20000
C3123       C  0.70494028  0.14332565  0.38157124    -0.25200
C3124       C  0.72772064  0.14449656  0.38272698     0.27400
H3125       H  0.73981031  0.09475191  0.36130183     0.13200
N3126       N  0.69691904  0.08803960  0.35656946    -0.82500
H3127       H  0.69535439  0.15690700  0.38750621     0.18000
N3128       N  0.73827093  0.16350914  0.39141646    -0.81100
H3129       H  0.70864135  0.07644689  0.35212588     0.33700
H3130       H  0.68919040  0.09282061  0.34220423     0.38200
H3131       H  0.72673385  0.17518154  0.39600098     0.33600
H3132       H  0.74639677  0.15887606  0.40564717     0.30300
H3133       H  0.77472821  0.09760899  0.42031174     0.33600
H3134       H  0.75524160  0.11665509  0.41849055     0.30300
H3135       H  0.81838567  0.16338672  0.35110346     0.38200
H3136       H  0.79889375  0.15848372  0.33261020     0.33700
C3137       C  0.87634199  0.05759078  0.37544125    -0.20100
C3138       C  0.88640441  0.04574582  0.35840189     0.36100
C3139       C  0.88580112  0.02287356  0.35864034    -0.26000
C3140       C  0.87548200  0.01154007  0.37554577     0.02600
C3141       C  0.86548844  0.02331366  0.39260081     0.27400
C3142       C  0.86617256  0.04619773  0.39245653    -0.25200
N3143       N  0.89764777  0.05692445  0.34118243    -0.82600
H3144       H  0.89378459  0.01378866  0.34577247     0.13200
C3145       C  0.87575042  0.98733682  0.37551254     0.02600
N3146       N  0.85452210  0.01195931  0.40988541    -0.81100
H3147       H  0.85837996  0.05519173  0.40550116     0.18000
C3148       C  0.88456631  0.97633552  0.39346927    -0.26000
C3149       C  0.88450195  0.95350120  0.39459478     0.36100
C3150       C  0.87583773  0.94130283  0.37703867    -0.20000
C3151       C  0.86770103  0.95237018  0.35871290    -0.25200
C3152       C  0.86734503  0.97523848  0.35786275     0.27400
H3153       H  0.89141268  0.98568295  0.40679406     0.13200
N3154       N  0.89372661  0.94279174  0.41326737    -0.82500
H3155       H  0.86111607  0.94314801  0.34517213     0.18000
N3156       N  0.85820396  0.98621647  0.33930892    -0.81100
H3157       H  0.90136380  0.95406206  0.42350434     0.33700
H3158       H  0.88082586  0.93635340  0.42230467     0.38200
H3159       H  0.85284521  0.97497014  0.32768734     0.33600
H3160       H  0.84441806  0.99470036  0.34461718     0.30300
H3161       H  0.84809164  0.02296131  0.42119441     0.33600
H3162       H  0.84129955  0.00369568  0.40303535     0.30300
H3163       H  0.91101066  0.06489097  0.34812062     0.38200
H3164       H  0.90394416  0.04584004  0.32987551     0.33700
C3165       C  0.12574981  0.80814820  0.38038661    -0.20100
C3166       C  0.12968099  0.79581748  0.36125675     0.36100
C3167       C  0.12829726  0.77305718  0.36209980    -0.26000
C3168       C  0.12372746  0.76227812  0.38163610     0.02600
C3169       C  0.12085438  0.77435128  0.40094041     0.27400
C3170       C  0.12181976  0.79717627  0.40011317    -0.25200
N3171       N  0.13532604  0.80630033  0.34109706    -0.82600
H3172       H  0.13111467  0.76356666  0.34746976     0.13200
C3173       C  0.12260494  0.73824555  0.38151650     0.02600
N3174       N  0.11674733  0.76338754  0.42120954    -0.81100
H3175       H  0.11911380  0.80640804  0.41491450     0.18000
C3176       C  0.13787005  0.72637632  0.39361665    -0.26000
C3177       C  0.13835231  0.70356920  0.39267146     0.36100
C3178       C  0.12328817  0.69250706  0.37925576    -0.20000
C3179       C  0.10754814  0.70435782  0.36769787    -0.25200
C3180       C  0.10715958  0.72720010  0.36856806     0.27400
H3181       H  0.14968401  0.73498669  0.40351735     0.13200
N3182       N  0.15398679  0.69159111  0.40535438    -0.82500
H3183       H  0.09591573  0.69579655  0.35754156     0.18000
N3184       N  0.09138117  0.73927845  0.35617045    -0.81100
H3185       H  0.16394396  0.70218284  0.41421278     0.33700
H3186       H  0.14534367  0.68238510  0.41677984     0.38200
H3187       H  0.08134218  0.72873277  0.34732503     0.33600
H3188       H  0.08134573  0.74750189  0.36720572     0.30300
H3189       H  0.11522408  0.77462565  0.43393260     0.33600
H3190       H  0.10173530  0.75548610  0.41983680     0.30300
H3191       H  0.15059403  0.81353235  0.34323525     0.38200
H3192       H  0.13714798  0.79486247  0.32859371     0.33700
C3193       C  0.30760264  0.87380328  0.37521766    -0.20100
C3194       C  0.29494235  0.89260501  0.37080584     0.36100
C3195       C  0.27216961  0.89148940  0.37244431    -0.26000
C3196       C  0.26175949  0.87200874  0.37784268     0.02600
C3197       C  0.27409791  0.85314445  0.38181340     0.27400
C3198       C  0.29692389  0.85421782  0.38050996    -0.25200
N3199       N  0.30509693  0.91267716  0.36436768    -0.82600
H3200       H  0.26238833  0.90581197  0.36915189     0.13200
C3201       C  0.23777848  0.87165323  0.37863966     0.02600
N3202       N  0.26336685  0.83301379  0.38701444    -0.81100
H3203       H  0.30638575  0.83970873  0.38384715     0.18000
C3204       C  0.22623043  0.86516713  0.36010568    -0.26000
C3205       C  0.20337041  0.86575680  0.35970961     0.36100
C3206       C  0.19190002  0.87335246  0.37826628    -0.20000
C3207       C  0.20367760  0.87955501  0.39693100    -0.25200
C3208       C  0.22652935  0.87873977  0.39729141     0.27400
H3209       H  0.23515032  0.85969847  0.34587605     0.13200
N3210       N  0.19188242  0.85848133  0.34062287    -0.82500
H3211       H  0.19506269  0.88528763  0.41123331     0.18000
N3212       N  0.23841557  0.88537075  0.41635864    -0.81100
H3213       H  0.20280142  0.85396048  0.32834550     0.33700
H3214       H  0.18332775  0.84439826  0.34485965     0.38200
H3215       H  0.22771733  0.89040563  0.42862634     0.33600
H3216       H  0.24659614  0.87169932  0.42235324     0.30300
H3217       H  0.27478638  0.82057455  0.38925202     0.33600
H3218       H  0.25543405  0.83509223  0.40193970     0.30300
H3219       H  0.31214156  0.91013692  0.34906918     0.38200
H3220       H  0.29345925  0.92495314  0.36232371     0.33700
C3221       C  0.05773502  0.87460384  0.38024133    -0.20100
C3222       C  0.04559297  0.86542937  0.36292184     0.36100
C3223       C  0.02276677  0.86640125  0.36348413    -0.26000
C3224       C  0.01181528  0.87615252  0.38098065     0.02600
C3225       C  0.02382479  0.88498169  0.39844385     0.27400
C3226       C  0.04668014  0.88398259  0.39796753    -0.25200
N3227       N  0.05639446  0.85486149  0.34500674    -0.82600
H3228       H  0.01339152  0.85928405  0.35031637     0.13200
C3229       C  0.98770927  0.87653319  0.38084494     0.02600
N3230       N  0.01275792  0.89519036  0.41639385    -0.81100
H3231       H  0.05590710  0.89103038  0.41126738     0.18000
C3232       C  0.97630373  0.86589029  0.39748148    -0.26000
C3233       C  0.95346556  0.86479590  0.39724095     0.36100
C3234       C  0.94185197  0.87450709  0.37988146    -0.20000
C3235       C  0.95332764  0.88528674  0.36332075    -0.25200
C3236       C  0.97614659  0.88664816  0.36378584     0.27400
H3237       H  0.98531499  0.85802846  0.41046432     0.13200
N3238       N  0.94210820  0.85349406  0.41430776    -0.82500
H3239       H  0.94443453  0.89305964  0.35020537     0.18000
N3240       N  0.98766205  0.89841001  0.34714836    -0.81100
H3241       H  0.95305715  0.84756559  0.42592899     0.33700
H3242       H  0.93457011  0.83991100  0.40732606     0.38200
H3243       H  0.97676801  0.90493162  0.33579649     0.33600
H3244       H  0.99539574  0.91161008  0.35463603     0.30300
H3245       H  0.02396114  0.90081129  0.42793676     0.33600
H3246       H  0.00468318  0.90890073  0.41034413     0.30300
H3247       H  0.06427652  0.84107545  0.35117419     0.38200
H3248       H  0.04507902  0.84927016  0.33357331     0.33700
C3249       C  0.30997829  0.12613901  0.37134705    -0.20100
C3250       C  0.29765616  0.14328305  0.38064859     0.36100
C3251       C  0.27481777  0.14250249  0.37977628    -0.26000
C3252       C  0.26404258  0.12493629  0.37006575     0.02600
C3253       C  0.27614447  0.10774302  0.36091990     0.27400
C3254       C  0.29903543  0.10850834  0.36162498    -0.25200
N3255       N  0.30828665  0.16118879  0.39137047    -0.82600
H3256       H  0.26529470  0.15554381  0.38692600     0.13200
C3257       C  0.23998154  0.12462501  0.37017128     0.02600
N3258       N  0.26510819  0.08959631  0.35106703    -0.81100
H3259       H  0.30835992  0.09532447  0.35449215     0.18000
C3260       C  0.22860193  0.12969176  0.35107740    -0.26000
C3261       C  0.20570283  0.13058155  0.35088395     0.36100
C3262       C  0.19398885  0.12573539  0.37019649    -0.20000
C3263       C  0.20563156  0.12071129  0.38928530    -0.25200
C3264       C  0.22848053  0.12013141  0.38945449     0.27400
H3265       H  0.23768323  0.13341398  0.33640769     0.13200
N3266       N  0.19445938  0.13676399  0.33128659    -0.82500
H3267       H  0.19689853  0.11699542  0.40415377     0.18000
N3268       N  0.24011913  0.11501752  0.40912609    -0.81100
H3269       H  0.20550416  0.13932837  0.31855778     0.33700
H3270       H  0.18694438  0.15174349  0.33423075     0.38200
H3271       H  0.22926903  0.11231870  0.42197490     0.33600
H3272       H  0.24838780  0.10035914  0.40654473     0.30300
H3273       H  0.27637047  0.07835340  0.34497655     0.33600
H3274       H  0.25639487  0.08161843  0.36331694     0.30300
H3275       H  0.31613751  0.15499608  0.40516725     0.38200
H3276       H  0.29686644  0.17250412  0.39699120     0.33700
C3277       C  0.12371998  0.30843821  0.37111695    -0.20100
C3278       C  0.10428343  0.29595265  0.37105230     0.36100
C3279       C  0.10556053  0.27309606  0.37193779    -0.26000
C3280       C  0.12569660  0.26233612  0.37252623     0.02600
C3281       C  0.14505827  0.27462456  0.37221973     0.27400
C3282       C  0.14387331  0.29745048  0.37145451    -0.25200
N3283       N  0.08331159  0.30634189  0.37012340    -0.82600
H3284       H  0.09072993  0.26353377  0.37184020     0.13200
C3285       C  0.12621993  0.23815379  0.37295287     0.02600
N3286       N  0.16585772  0.26386368  0.37297787    -0.81100
H3287       H  0.15889666  0.30668384  0.37140439     0.18000
C3288       C  0.13678393  0.22687677  0.35609623    -0.26000
C3289       C  0.13735581  0.20400470  0.35568261     0.36100
C3290       C  0.12672995  0.19215957  0.37226994    -0.20000
C3291       C  0.11641376  0.20346692  0.38929773    -0.25200
C3292       C  0.11610249  0.22634220  0.38984862     0.27400
H3293       H  0.14461479  0.23600407  0.34319422     0.13200
N3294       N  0.14904772  0.19280370  0.33874798    -0.82500
H3295       H  0.10842491  0.19440920  0.40215461     0.18000
N3296       N  0.10567056  0.23764119  0.40752716    -0.81100
H3297       H  0.15589227  0.20392318  0.32780980     0.33700
H3298       H  0.16205217  0.18461365  0.34605917     0.38200
H3299       H  0.09890212  0.22657847  0.41855516     0.33600
H3300       H  0.11771305  0.24619548  0.41599562     0.30300
H3301       H  0.17854081  0.27521382  0.37246758     0.33600
H3302       H  0.16701782  0.25595301  0.38800035     0.30300
H3303       H  0.08180506  0.31336731  0.35469737     0.38200
H3304       H  0.07080784  0.29483878  0.37132224     0.33700
C3305       C  0.05969204  0.12428299  0.37538173    -0.20100
C3306       C  0.04720453  0.11432340  0.35878648     0.36100
C3307       C  0.02440016  0.11565516  0.35957053    -0.26000
C3308       C  0.01380414  0.12637384  0.37671533     0.02600
C3309       C  0.02616012  0.13583761  0.39360300     0.27400
C3310       C  0.04901125  0.13460575  0.39281725    -0.25200
N3311       N  0.05765784  0.10252648  0.34144707    -0.82600
H3312       H  0.01475854  0.10799496  0.34691091     0.13200
C3313       C  0.98969540  0.12682365  0.37694937     0.02600
N3314       N  0.01545275  0.14686531  0.41128483    -0.81100
H3315       H  0.05852924  0.14219188  0.40560778     0.18000
C3316       C  0.97855178  0.11630807  0.39383931    -0.26000
C3317       C  0.95571838  0.11493194  0.39380269     0.36100
C3318       C  0.94381679  0.12453495  0.37658248    -0.20000
C3319       C  0.95504312  0.13511467  0.35971269    -0.25200
C3320       C  0.97787290  0.13650495  0.35981417     0.27400
H3321       H  0.98777556  0.10864728  0.40679345     0.13200
N3322       N  0.94465883  0.10335881  0.41087857    -0.82500
H3323       H  0.94595391  0.14267585  0.34660725     0.18000
N3324       N  0.98914007  0.14778809  0.34268203    -0.81100
H3325       H  0.95579399  0.09744244  0.42232641     0.33700
H3326       H  0.93721750  0.08974799  0.40383799     0.38200
H3327       H  0.97808184  0.15393297  0.33127568     0.33600
H3328       H  0.99693810  0.16122123  0.34966445     0.30300
H3329       H  0.02688383  0.15283488  0.42242547     0.33600
H3330       H  0.00741430  0.16039754  0.40480536     0.30300
H3331       H  0.06548513  0.08908368  0.34838795     0.38200
H3332       H  0.04612055  0.09633191  0.33055437     0.33700
C3333       C  0.12471951  0.94223595  0.37795315    -0.20100
C3334       C  0.11459728  0.95382093  0.36081930     0.36100
C3335       C  0.11599674  0.97662551  0.36034905    -0.26000
C3336       C  0.12700740  0.98806263  0.37674841     0.02600
C3337       C  0.13684929  0.97659989  0.39401994     0.27400
C3338       C  0.13549720  0.95377833  0.39452313    -0.25200
N3339       N  0.10259240  0.94246057  0.34420898    -0.82600
H3340       H  0.10817312  0.98560307  0.34732107     0.13200
C3341       C  0.12748527  0.01213093  0.37592006     0.02600
N3342       N  0.14836383  0.98820088  0.41080134    -0.81100
H3343       H  0.14331146  0.94494101  0.40764782     0.18000
C3344       C  0.11705717  0.02399157  0.39238876    -0.26000
C3345       C  0.11651882  0.04682607  0.39191566     0.36100
C3346       C  0.12669075  0.05801274  0.37455534    -0.20000
C3347       C  0.13700717  0.04606546  0.35797621    -0.25200
C3348       C  0.13774255  0.02320031  0.35864259     0.27400
H3349       H  0.10903921  0.01533362  0.40550392     0.13200
N3350       N  0.10533145  0.05864495  0.40877943    -0.82500
H3351       H  0.14495461  0.05461096  0.34475025     0.18000
N3352       N  0.14909019  0.01115106  0.34206120    -0.81100
H3353       H  0.09896306  0.04797739  0.42041457     0.33700
H3354       H  0.09203269  0.06649924  0.40160122     0.38200
H3355       H  0.15581452  0.02171500  0.33053864     0.33600
H3356       H  0.16215395  0.00317381  0.34953929     0.30300
H3357       H  0.15464302  0.97737996  0.42234785     0.33600
H3358       H  0.16172778  0.99583401  0.40352826     0.30300
H3359       H  0.08921443  0.93506193  0.35170898     0.38200
H3360       H  0.09628733  0.95338711  0.33278002     0.33700
loop_ 
_geom_bond_atom_site_label_1 
_geom_bond_atom_site_label_2 
_geom_bond_distance 
_geom_bond_site_symmetry_2 
_ccdc_geom_bond_type 
O1           Cu9   2.002       .  S
O1           C11   1.277       .  A
O2           Cu9   2.006       .  S
O2           C12   1.278       .  A
O3           Cu9   2.016       .  S
O3           C13   1.279       .  A
O4           Cu9   2.014       .  S
O4           C14   1.279       .  A
O5          Cu10   2.000       .  S
O5           C14   1.277       .  A
O6          Cu10   2.001       .  S
O6           C13   1.277       .  A
O7          Cu10   2.007       .  S
O7           C12   1.278       .  A
O8          Cu10   2.011       .  S
O8           C11   1.279       .  A
Cu9         Cu10   2.371       .  S
C11        C3262   1.487       .  S
C12        C3305   1.480       .  S
C13        C3290   1.481       .  S
C14        C3346   1.480       .  S
O15         Cu23   2.011       .  S
O15          C25   1.279       .  A
O16         Cu23   2.006       .  S
O16          C26   1.278       .  A
O17         Cu23   2.010       .  S
O17          C27   1.278       .  A
O18         Cu23   2.008       .  S
O18          C28   1.278       .  A
O19         Cu24   1.994       .  S
O19          C28   1.276       .  A
O20         Cu24   1.999       .  S
O20          C27   1.277       .  A
O21         Cu24   1.999       .  S
O21          C26   1.277       .  A
O22         Cu24   1.997       .  S
O22          C25   1.276       .  A
Cu23        Cu24   2.369       .  S
C25        C3221   1.481       .  S
C26        C3206   1.483       .  S
C27        C3333   1.479       .  S
C28        C3165   1.485       .  S
O29         Cu37   1.996       .  S
O29          C39   1.275       .  A
O30         Cu37   2.005       .  S
O30          C40   1.277       .  A
O31         Cu37   2.008       .  S
O31          C41   1.278       .  A
O32         Cu37   2.008       .  S
O32          C42   1.278       .  A
O33         Cu38   1.999       .  S
O33          C42   1.277       .  A
O34         Cu38   1.995       .  S
O34          C41   1.276       .  A
O35         Cu38   2.019       .  S
O35          C40   1.280       .  A
O36         Cu38   2.022       .  S
O36          C39   1.281       .  A
Cu37        Cu38   2.370       .  S
C39        C3081   1.491       .  S
C40        C3137   1.485       .  S
C41        C3109   1.475       .  S
C42        C3318   1.479       .  S
O43         Cu51   2.011       .  S
O43          C53   1.279       .  A
O44         Cu51   2.008       .  S
O44          C54   1.279       .  A
O45         Cu51   2.006       .  S
O45          C55   1.278       .  A
O46         Cu51   2.004       .  S
O46          C56   1.277       .  A
O47         Cu52   2.002       .  S
O47          C56   1.278       .  A
O48         Cu52   2.006       .  S
O48          C55   1.277       .  A
O49         Cu52   1.992       .  S
O49          C54   1.275       .  A
O50         Cu52   1.993       .  S
O50          C53   1.276       .  A
Cu51        Cu52   2.368       .  S
C53        C3234   1.477       .  S
C54        C3025   1.487       .  S
C55        C3150   1.485       .  S
C56        C3053   1.482       .  S
O57         Cu65   2.011       .  S
O57          C67   1.278       .  A
O58         Cu65   2.016       .  S
O58          C68   1.278       .  A
O59         Cu65   2.003       .  S
O59          C69   1.277       .  A
O60         Cu65   2.004       .  S
O60          C70   1.278       .  A
O61         Cu66   1.996       .  S
O61          C70   1.276       .  A
O62         Cu66   2.001       .  S
O62          C69   1.277       .  A
O63         Cu66   2.007       .  S
O63          C68   1.279       .  A
O64         Cu66   2.000       .  S
O64          C67   1.277       .  A
Cu65        Cu66   2.368       .  S
C67        C2982   1.481       .  S
C68        C3277   1.494       .  S
C69        C2997   1.478       .  S
C70        C2941   1.482       .  S
O71         Cu79   2.005       .  S
O71          C81   1.278       .  A
O72         Cu79   2.015       .  S
O72          C82   1.279       .  A
O73         Cu79   2.009       .  S
O73          C83   1.277       .  A
O74         Cu79   2.006       .  S
O74          C84   1.277       .  A
O75         Cu80   2.013       .  S
O75          C84   1.279       .  A
O76         Cu80   2.015       .  S
O76          C83   1.279       .  A
O77         Cu80   2.002       .  S
O77          C82   1.276       .  A
O78         Cu80   2.001       .  S
O78          C81   1.277       .  A
Cu79        Cu80   2.366       .  S
C81        C2857   1.484       .  S
C82        C2913   1.492       .  S
C83        C2885   1.491       .  S
C84        C3010   1.486       .  S
O85         Cu93   2.004       .  S
O85          C95   1.278       .  A
O86         Cu93   2.006       .  S
O86          C96   1.277       .  A
O87         Cu93   2.009       .  S
O87          C97   1.278       .  A
O88         Cu93   2.005       .  S
O88          C98   1.278       .  A
O89         Cu94   1.995       .  S
O89          C98   1.276       .  A
O90         Cu94   2.004       .  S
O90          C97   1.278       .  A
O91         Cu94   1.999       .  S
O91          C96   1.277       .  A
O92         Cu94   2.003       .  S
O92          C95   1.277       .  A
Cu93        Cu94   2.375       .  S
C95        C2969   1.481       .  S
C96        C3178   1.473       .  S
C97        C2801   1.476       .  S
C98        C2829   1.469       .  S
O99        Cu107   1.999       .  S
O99         C109   1.278       .  A
O100       Cu107   1.994       .  S
O100        C110   1.277       .  A
O101       Cu107   2.007       .  S
O101        C111   1.278       .  A
O102       Cu107   2.007       .  S
O102        C112   1.278       .  A
O103       Cu108   2.013       .  S
O103        C112   1.278       .  A
O104       Cu108   2.015       .  S
O104        C111   1.278       .  A
O105       Cu108   2.004       .  S
O105        C110   1.277       .  A
O106       Cu108   1.999       .  S
O106        C109   1.277       .  A
Cu107      Cu108   2.368       .  S
C109       C2745   1.484       .  S
C110       C2842   1.484       .  S
C111       C2926   1.481       .  S
C112       C2773   1.490       .  S
O113       Cu121   2.009       .  S
O113        C123   1.278       .  A
O114       Cu121   2.009       .  S
O114        C124   1.278       .  A
O115       Cu121   2.012       .  S
O115        C125   1.279       .  A
O116       Cu121   2.006       .  S
O116        C126   1.278       .  A
O117       Cu122   1.996       .  S
O117        C126   1.277       .  A
O118       Cu122   1.997       .  S
O118        C125   1.277       .  A
O119       Cu122   1.993       .  S
O119        C124   1.277       .  A
O120       Cu122   1.995       .  S
O120        C123   1.277       .  A
Cu121      Cu122   2.370       .  S
C123       C2674   1.482       .  S
C124       C2717   1.477       .  S
C125       C2702   1.483       .  S
C126       C3122   1.481       .  S
O127       Cu135   2.016       .  S
O127        C137   1.279       .  A
O128       Cu135   2.013       .  S
O128        C138   1.278       .  A
O129       Cu135   1.995       .  S
O129        C139   1.276       .  A
O130       Cu135   2.004       .  S
O130        C140   1.277       .  A
O131       Cu136   2.008       .  S
O131        C140   1.278       .  A
O132       Cu136   2.012       .  S
O132        C139   1.280       .  A
O133       Cu136   2.001       .  S
O133        C138   1.276       .  A
O134       Cu136   1.993       .  S
O134        C137   1.276       .  A
Cu135      Cu136   2.372       .  S
C137       C2730   1.480       .  S
C138       C2618   1.473       .  S
C139       C2577   1.485       .  S
C140       C2633   1.473       .  S
O141       Cu149   2.013       .  S
O141        C151   1.279       .  A
O142       Cu149   2.009       .  S
O142        C152   1.277       .  A
O143       Cu149   2.003       .  S
O143        C153   1.276       .  A
O144       Cu149   2.004       .  S
O144        C154   1.277       .  A
O145       Cu150   2.012       .  S
O145        C154   1.279       .  A
O146       Cu150   2.010       .  S
O146        C153   1.279       .  A
O147       Cu150   2.011       .  S
O147        C152   1.277       .  A
O148       Cu150   2.007       .  S
O148        C151   1.277       .  A
Cu149      Cu150   2.372       .  S
C151       C2521   1.481       .  S
C152       C2549   1.473       .  S
C153       C2689   1.480       .  S
C154       C3249   1.484       .  S
O155       Cu163   2.005       .  S
O155        C165   1.278       .  A
O156       Cu163   2.003       .  S
O156        C166   1.276       .  A
O157       Cu163   2.001       .  S
O157        C167   1.277       .  A
O158       Cu163   2.006       .  S
O158        C168   1.277       .  A
O159       Cu164   2.006       .  S
O159        C168   1.278       .  A
O160       Cu164   2.016       .  S
O160        C167   1.279       .  A
O161       Cu164   2.011       .  S
O161        C166   1.278       .  A
O162       Cu164   2.014       .  S
O162        C165   1.279       .  A
Cu163      Cu164   2.369       .  S
C165       C2493   1.489       .  S
C166       C2646   1.471       .  S
C167       C2562   1.485       .  S
C168       C2465   1.489       .  S
O169       Cu177   1.998       .  S
O169        C179   1.276       .  A
O170       Cu177   2.003       .  S
O170        C180   1.277       .  A
O171       Cu177   2.009       .  S
O171        C181   1.278       .  A
O172       Cu177   2.009       .  S
O172        C182   1.277       .  A
O173       Cu178   2.017       .  S
O173        C182   1.279       .  A
O174       Cu178   2.004       .  S
O174        C181   1.277       .  A
O175       Cu178   2.001       .  S
O175        C180   1.278       .  A
O176       Cu178   2.002       .  S
O176        C179   1.277       .  A
Cu177      Cu178   2.372       .  S
C179       C3066   1.470       .  S
C180       C2409   1.481       .  S
C181       C2450   1.472       .  S
C182       C2381   1.488       .  S
O183       Cu191   2.008       .  S
O183        C193   1.278       .  A
O184       Cu191   2.005       .  S
O184        C194   1.278       .  A
O185       Cu191   2.003       .  S
O185        C195   1.277       .  A
O186       Cu191   2.005       .  S
O186        C196   1.277       .  A
O187       Cu192   2.011       .  S
O187        C196   1.278       .  A
O188       Cu192   2.006       .  S
O188        C195   1.278       .  A
O189       Cu192   2.003       .  S
O189        C194   1.278       .  A
O190       Cu192   1.999       .  S
O190        C193   1.277       .  A
Cu191      Cu192   2.369       .  S
C193       C2297   1.477       .  S
C194       C2353   1.484       .  S
C195       C2325   1.488       .  S
C196       C2437   1.482       .  S
O197       Cu205   2.000       .  S
O197        C207   1.277       .  A
O198       Cu205   2.002       .  S
O198        C208   1.277       .  A
O199       Cu205   2.011       .  S
O199        C209   1.279       .  A
O200       Cu205   2.007       .  S
O200        C210   1.277       .  A
O201       Cu206   2.005       .  S
O201        C210   1.278       .  A
O202       Cu206   2.006       .  S
O202        C209   1.277       .  A
O203       Cu206   2.001       .  S
O203        C208   1.277       .  A
O204       Cu206   2.006       .  S
O204        C207   1.278       .  A
Cu205      Cu206   2.369       .  S
C207       C2241   1.485       .  S
C208       C2269   1.474       .  S
C209       C3094   1.491       .  S
C210       C2422   1.478       .  S
O211       Cu219   2.005       .  S
O211        C221   1.278       .  A
O212       Cu219   1.995       .  S
O212        C222   1.277       .  A
O213       Cu219   2.005       .  S
O213        C223   1.278       .  A
O214       Cu219   2.007       .  S
O214        C224   1.277       .  A
O215       Cu220   2.008       .  S
O215        C224   1.278       .  A
O216       Cu220   2.005       .  S
O216        C223   1.277       .  A
O217       Cu220   2.002       .  S
O217        C222   1.277       .  A
O218       Cu220   1.998       .  S
O218        C221   1.277       .  A
Cu219      Cu220   2.370       .  S
C221       C2282   1.482       .  S
C222       C2185   1.485       .  S
C223       C2366   1.477       .  S
C224       C2213   1.480       .  S
O225       Cu233   2.002       .  S
O225        C235   1.277       .  A
O226       Cu233   2.001       .  S
O226        C236   1.277       .  A
O227       Cu233   1.999       .  S
O227        C237   1.277       .  A
O228       Cu233   1.997       .  S
O228        C238   1.277       .  A
O229       Cu234   2.005       .  S
O229        C238   1.278       .  A
O230       Cu234   2.000       .  S
O230        C237   1.277       .  A
O231       Cu234   2.006       .  S
O231        C236   1.278       .  A
O232       Cu234   2.008       .  S
O232        C235   1.278       .  A
Cu233      Cu234   2.368       .  S
C235       C3193   1.487       .  S
C236       C2142   1.480       .  S
C237       C2114   1.486       .  S
C238       C2157   1.480       .  S
O239       Cu247   1.999       .  S
O239        C249   1.277       .  A
O240       Cu247   2.001       .  S
O240        C250   1.276       .  A
O241       Cu247   2.005       .  S
O241        C251   1.278       .  A
O242       Cu247   2.001       .  S
O242        C252   1.277       .  A
O243       Cu248   2.005       .  S
O243        C252   1.279       .  A
O244       Cu248   2.003       .  S
O244        C251   1.277       .  A
O245       Cu248   2.016       .  S
O245        C250   1.279       .  A
O246       Cu248   2.004       .  S
O246        C249   1.278       .  A
Cu247      Cu248   2.368       .  S
C249       C2017   1.484       .  S
C250       C2073   1.484       .  S
C251       C2170   1.477       .  S
C252       C2045   1.489       .  S
O253       Cu261   2.008       .  S
O253        C263   1.277       .  A
O254       Cu261   2.005       .  S
O254        C264   1.278       .  A
O255       Cu261   2.010       .  S
O255        C265   1.279       .  A
O256       Cu261   2.006       .  S
O256        C266   1.277       .  A
O257       Cu262   2.005       .  S
O257        C266   1.279       .  A
O258       Cu262   2.003       .  S
O258        C265   1.276       .  A
O259       Cu262   2.007       .  S
O259        C264   1.278       .  A
O260       Cu262   2.002       .  S
O260        C263   1.278       .  A
Cu261      Cu262   2.368       .  S
C263       C1933   1.481       .  S
C264       C1989   1.480       .  S
C265       C2086   1.486       .  S
C266       C1961   1.490       .  S
O267       Cu275   2.007       .  S
O267        C277   1.278       .  A
O268       Cu275   2.005       .  S
O268        C278   1.278       .  A
O269       Cu275   2.006       .  S
O269        C279   1.277       .  A
O270       Cu275   2.000       .  S
O270        C280   1.277       .  A
O271       Cu276   2.014       .  S
O271        C280   1.278       .  A
O272       Cu276   2.013       .  S
O272        C279   1.279       .  A
O273       Cu276   1.999       .  S
O273        C278   1.277       .  A
O274       Cu276   1.997       .  S
O274        C277   1.276       .  A
Cu275      Cu276   2.370       .  S
C277       C3038   1.478       .  S
C278       C2129   1.479       .  S
C279       C2002   1.485       .  S
C280       C1918   1.484       .  S
O281       Cu289   2.004       .  S
O281        C291   1.277       .  A
O282       Cu289   2.007       .  S
O282        C292   1.279       .  A
O283       Cu289   2.013       .  S
O283        C293   1.279       .  A
O284       Cu289   2.012       .  S
O284        C294   1.278       .  A
O285       Cu290   1.996       .  S
O285        C294   1.277       .  A
O286       Cu290   1.994       .  S
O286        C293   1.276       .  A
O287       Cu290   2.001       .  S
O287        C292   1.276       .  A
O288       Cu290   1.996       .  S
O288        C291   1.277       .  A
Cu289      Cu290   2.369       .  S
C291       C2030   1.478       .  S
C292       C1862   1.486       .  S
C293       C2786   1.484       .  S
C294       C1877   1.483       .  S
O295       Cu303   2.005       .  S
O295        C305   1.276       .  A
O296       Cu303   2.002       .  S
O296        C306   1.277       .  A
O297       Cu303   1.994       .  S
O297        C307   1.276       .  A
O298       Cu303   2.002       .  S
O298        C308   1.278       .  A
O299       Cu304   1.995       .  S
O299        C308   1.276       .  A
O300       Cu304   2.007       .  S
O300        C307   1.278       .  A
O301       Cu304   2.022       .  S
O301        C306   1.280       .  A
O302       Cu304   2.012       .  S
O302        C305   1.278       .  A
Cu303      Cu304   2.376       .  S
C305       C1821   1.468       .  S
C306       C2506   1.480       .  S
C307       C1890   1.471       .  S
C308       C2870   1.475       .  S
O309       Cu317   2.007       .  S
O309        C319   1.278       .  A
O310       Cu317   2.003       .  S
O310        C320   1.277       .  A
O311       Cu317   2.005       .  S
O311        C321   1.278       .  A
O312       Cu317   2.006       .  S
O312        C322   1.278       .  A
O313       Cu318   2.002       .  S
O313        C322   1.277       .  A
O314       Cu318   2.007       .  S
O314        C321   1.278       .  A
O315       Cu318   2.012       .  S
O315        C320   1.279       .  A
O316       Cu318   2.007       .  S
O316        C319   1.277       .  A
Cu317      Cu318   2.367       .  S
C319       C1793   1.489       .  S
C320       C2226   1.490       .  S
C321       C1834   1.487       .  S
C322       C2590   1.480       .  S
O323       Cu331   2.001       .  S
O323        C333   1.277       .  A
O324       Cu331   2.007       .  S
O324        C334   1.278       .  A
O325       Cu331   2.011       .  S
O325        C335   1.279       .  A
O326       Cu331   2.008       .  S
O326        C336   1.278       .  A
O327       Cu332   2.002       .  S
O327        C336   1.277       .  A
O328       Cu332   1.997       .  S
O328        C335   1.276       .  A
O329       Cu332   2.004       .  S
O329        C334   1.277       .  A
O330       Cu332   2.011       .  S
O330        C333   1.279       .  A
Cu331      Cu332   2.372       .  S
C333       C2310   1.489       .  S
C334       C1806   1.476       .  S
C335       C1974   1.477       .  S
C336       C1849   1.474       .  S
O337       Cu345   2.007       .  S
O337        C347   1.277       .  A
O338       Cu345   2.005       .  S
O338        C348   1.277       .  A
O339       Cu345   2.002       .  S
O339        C349   1.277       .  A
O340       Cu345   2.007       .  S
O340        C350   1.278       .  A
O341       Cu346   2.004       .  S
O341        C350   1.277       .  A
O342       Cu346   2.005       .  S
O342        C349   1.278       .  A
O343       Cu346   2.001       .  S
O343        C348   1.276       .  A
O344       Cu346   2.004       .  S
O344        C347   1.279       .  A
Cu345      Cu346   2.374       .  S
C347       C2534   1.489       .  S
C348       C1765   1.465       .  S
C349       C1709   1.476       .  S
C350       C1750   1.474       .  S
O351       Cu359   2.013       .  S
O351        C361   1.278       .  A
O352       Cu359   2.012       .  S
O352        C362   1.279       .  A
O353       Cu359   2.005       .  S
O353        C363   1.277       .  A
O354       Cu359   2.002       .  S
O354        C364   1.278       .  A
O355       Cu360   1.998       .  S
O355        C364   1.277       .  A
O356       Cu360   1.995       .  S
O356        C363   1.277       .  A
O357       Cu360   1.994       .  S
O357        C362   1.275       .  A
O358       Cu360   1.994       .  S
O358        C361   1.276       .  A
Cu359      Cu360   2.371       .  S
C361       C1778   1.474       .  S
C362       C2478   1.482       .  S
C363       C1653   1.481       .  S
C364       C1681   1.478       .  S
O365       Cu373   2.006       .  S
O365        C375   1.278       .  A
O366       Cu373   1.997       .  S
O366        C376   1.276       .  A
O367       Cu373   2.002       .  S
O367        C377   1.277       .  A
O368       Cu373   2.004       .  S
O368        C378   1.278       .  A
O369       Cu374   2.009       .  S
O369        C378   1.278       .  A
O370       Cu374   2.007       .  S
O370        C377   1.278       .  A
O371       Cu374   2.016       .  S
O371        C376   1.279       .  A
O372       Cu374   2.015       .  S
O372        C375   1.279       .  A
Cu373      Cu374   2.368       .  S
C375       C1597   1.493       .  S
C376       C1694   1.480       .  S
C377       C1625   1.484       .  S
C378       C2058   1.481       .  S
O379       Cu387   2.004       .  S
O379        C389   1.278       .  A
O380       Cu387   2.005       .  S
O380        C390   1.279       .  A
O381       Cu387   2.002       .  S
O381        C391   1.277       .  A
O382       Cu387   2.007       .  S
O382        C392   1.278       .  A
O383       Cu388   2.010       .  S
O383        C392   1.278       .  A
O384       Cu388   2.013       .  S
O384        C391   1.279       .  A
O385       Cu388   1.993       .  S
O385        C390   1.275       .  A
O386       Cu388   1.994       .  S
O386        C389   1.276       .  A
Cu387      Cu388   2.366       .  S
C389       C1638   1.477       .  S
C390       C2101   1.483       .  S
C391       C1569   1.491       .  S
C392       C1737   1.491       .  S
O393       Cu401   2.008       .  S
O393        C403   1.278       .  A
O394       Cu401   2.009       .  S
O394        C404   1.277       .  A
O395       Cu401   1.994       .  S
O395        C405   1.276       .  A
O396       Cu401   1.998       .  S
O396        C406   1.277       .  A
O397       Cu402   2.007       .  S
O397        C406   1.278       .  A
O398       Cu402   2.010       .  S
O398        C405   1.279       .  A
O399       Cu402   2.006       .  S
O399        C404   1.278       .  A
O400       Cu402   2.003       .  S
O400        C403   1.277       .  A
Cu401      Cu402   2.369       .  S
C403       C1513   1.476       .  S
C404       C1485   1.488       .  S
C405       C1541   1.479       .  S
C406       C2254   1.486       .  S
O407       Cu415   1.996       .  S
O407        C417   1.276       .  A
O408       Cu415   1.997       .  S
O408        C418   1.277       .  A
O409       Cu415   2.007       .  S
O409        C419   1.278       .  A
O410       Cu415   2.005       .  S
O410        C420   1.279       .  A
O411       Cu416   1.997       .  S
O411        C420   1.276       .  A
O412       Cu416   2.001       .  S
O412        C419   1.277       .  A
O413       Cu416   2.016       .  S
O413        C418   1.279       .  A
O414       Cu416   2.010       .  S
O414        C417   1.278       .  A
Cu415      Cu416   2.371       .  S
C417       C1429   1.479       .  S
C418       C1457   1.480       .  S
C419       C1554   1.480       .  S
C420       C2198   1.483       .  S
O421       Cu429   2.000       .  S
O421        C431   1.278       .  A
O422       Cu429   2.008       .  S
O422        C432   1.278       .  A
O423       Cu429   1.996       .  S
O423        C433   1.276       .  A
O424       Cu429   1.990       .  S
O424        C434   1.275       .  A
O425       Cu430   2.001       .  S
O425        C434   1.278       .  A
O426       Cu430   2.005       .  S
O426        C433   1.278       .  A
O427       Cu430   2.001       .  S
O427        C432   1.276       .  A
O428       Cu430   2.001       .  S
O428        C431   1.276       .  A
Cu429      Cu430   2.368       .  S
C431       C1386   1.487       .  S
C432       C1526   1.485       .  S
C433       C1401   1.471       .  S
C434       C2954   1.483       .  S
O435       Cu443   2.011       .  S
O435        C445   1.279       .  A
O436       Cu443   2.016       .  S
O436        C446   1.278       .  A
O437       Cu443   2.008       .  S
O437        C447   1.277       .  A
O438       Cu443   2.014       .  S
O438        C448   1.279       .  A
O439       Cu444   2.006       .  S
O439        C448   1.278       .  A
O440       Cu444   2.010       .  S
O440        C447   1.278       .  A
O441       Cu444   2.002       .  S
O441        C446   1.277       .  A
O442       Cu444   2.006       .  S
O442        C445   1.277       .  A
Cu443      Cu444   2.369       .  S
C445       C2898   1.492       .  S
C446       C1414   1.472       .  S
C447       C1470   1.475       .  S
C448       C1358   1.492       .  S
O449       Cu457   1.999       .  S
O449        C459   1.275       .  A
O450       Cu457   2.000       .  S
O450        C460   1.277       .  A
O451       Cu457   2.016       .  S
O451        C461   1.278       .  A
O452       Cu457   2.022       .  S
O452        C462   1.280       .  A
O453       Cu458   1.996       .  S
O453        C462   1.275       .  A
O454       Cu458   1.996       .  S
O454        C461   1.277       .  A
O455       Cu458   2.016       .  S
O455        C460   1.279       .  A
O456       Cu458   2.018       .  S
O456        C459   1.280       .  A
Cu457      Cu458   2.369       .  S
C459       C1317   1.477       .  S
C460       C1905   1.487       .  S
C461       C1261   1.483       .  S
C462       C1289   1.484       .  S
O463       Cu471   2.006       .  S
O463        C473   1.277       .  A
O464       Cu471   2.016       .  S
O464        C474   1.279       .  A
O465       Cu471   1.998       .  S
O465        C475   1.277       .  A
O466       Cu471   2.002       .  S
O466        C476   1.277       .  A
O467       Cu472   2.006       .  S
O467        C476   1.278       .  A
O468       Cu472   2.011       .  S
O468        C475   1.278       .  A
O469       Cu472   2.003       .  S
O469        C474   1.278       .  A
O470       Cu472   2.001       .  S
O470        C473   1.277       .  A
Cu471      Cu472   2.369       .  S
C473       C1233   1.478       .  S
C474       C1205   1.487       .  S
C475       C1946   1.487       .  S
C476       C1330   1.481       .  S
O477       Cu485   2.011       .  S
O477        C487   1.279       .  A
O478       Cu485   2.009       .  S
O478        C488   1.278       .  A
O479       Cu485   2.001       .  S
O479        C489   1.277       .  A
O480       Cu485   2.004       .  S
O480        C490   1.278       .  A
O481       Cu486   2.011       .  S
O481        C490   1.278       .  A
O482       Cu486   2.011       .  S
O482        C489   1.279       .  A
O483       Cu486   1.996       .  S
O483        C488   1.277       .  A
O484       Cu486   1.994       .  S
O484        C487   1.275       .  A
Cu485      Cu486   2.369       .  S
C487       C1149   1.484       .  S
C488       C1246   1.483       .  S
C489       C1177   1.479       .  S
C490       C2605   1.482       .  S
O491       Cu499   2.005       .  S
O491        C501   1.278       .  A
O492       Cu499   2.002       .  S
O492        C502   1.277       .  A
O493       Cu499   2.005       .  S
O493        C503   1.277       .  A
O494       Cu499   2.001       .  S
O494        C504   1.278       .  A
O495       Cu500   2.004       .  S
O495        C504   1.277       .  A
O496       Cu500   2.000       .  S
O496        C503   1.278       .  A
O497       Cu500   2.012       .  S
O497        C502   1.279       .  A
O498       Cu500   2.010       .  S
O498        C501   1.278       .  A
Cu499      Cu500   2.368       .  S
C501       C1121   1.480       .  S
C502       C1302   1.485       .  S
C503       C1190   1.482       .  S
C504       C2661   1.487       .  S
O505       Cu513   1.990       .  S
O505        C515   1.275       .  A
O506       Cu513   1.997       .  S
O506        C516   1.276       .  A
O507       Cu513   2.017       .  S
O507        C517   1.279       .  A
O508       Cu513   2.017       .  S
O508        C518   1.279       .  A
O509       Cu514   2.007       .  S
O509        C518   1.277       .  A
O510       Cu514   2.003       .  S
O510        C517   1.276       .  A
O511       Cu514   2.005       .  S
O511        C516   1.279       .  A
O512       Cu514   2.010       .  S
O512        C515   1.278       .  A
Cu513      Cu514   2.371       .  S
C515       C1065   1.470       .  S
C516       C1037   1.487       .  S
C517       C2814   1.476       .  S
C518       C1106   1.485       .  S
O519       Cu527   2.011       .  S
O519        C529   1.278       .  A
O520       Cu527   2.008       .  S
O520        C530   1.278       .  A
O521       Cu527   2.006       .  S
O521        C531   1.278       .  A
O522       Cu527   1.997       .  S
O522        C532   1.276       .  A
O523       Cu528   2.014       .  S
O523        C532   1.279       .  A
O524       Cu528   2.009       .  S
O524        C531   1.278       .  A
O525       Cu528   1.999       .  S
O525        C530   1.276       .  A
O526       Cu528   1.997       .  S
O526        C529   1.277       .  A
Cu527      Cu528   2.368       .  S
C529        C981   1.489       .  S
C530       C1022   1.477       .  S
C531       C1093   1.484       .  S
C532       C2758   1.483       .  S
O533       Cu541   1.994       .  S
O533        C543   1.276       .  A
O534       Cu541   1.993       .  S
O534        C544   1.275       .  A
O535       Cu541   1.998       .  S
O535        C545   1.277       .  A
O536       Cu541   2.001       .  S
O536        C546   1.278       .  A
O537       Cu542   2.010       .  S
O537        C546   1.278       .  A
O538       Cu542   2.012       .  S
O538        C545   1.278       .  A
O539       Cu542   2.020       .  S
O539        C544   1.280       .  A
O540       Cu542   2.017       .  S
O540        C543   1.279       .  A
Cu541      Cu542   2.373       .  S
C543       C2338   1.478       .  S
C544        C953   1.477       .  S
C545       C1009   1.477       .  S
C546        C925   1.481       .  S
O547       Cu555   2.011       .  S
O547        C557   1.279       .  A
O548       Cu555   2.015       .  S
O548        C558   1.279       .  A
O549       Cu555   2.005       .  S
O549        C559   1.277       .  A
O550       Cu555   1.999       .  S
O550        C560   1.277       .  A
O551       Cu556   2.001       .  S
O551        C560   1.277       .  A
O552       Cu556   1.996       .  S
O552        C559   1.277       .  A
O553       Cu556   2.006       .  S
O553        C558   1.278       .  A
O554       Cu556   2.004       .  S
O554        C557   1.277       .  A
Cu555      Cu556   2.371       .  S
C557        C966   1.477       .  S
C558       C2394   1.488       .  S
C559        C910   1.477       .  S
C560       C1078   1.473       .  S
O561       Cu569   1.991       .  S
O561        C571   1.275       .  A
O562       Cu569   1.997       .  S
O562        C572   1.276       .  A
O563       Cu569   2.003       .  S
O563        C573   1.277       .  A
O564       Cu569   2.012       .  S
O564        C574   1.279       .  A
O565       Cu570   2.000       .  S
O565        C574   1.277       .  A
O566       Cu570   2.004       .  S
O566        C573   1.277       .  A
O567       Cu570   2.005       .  S
O567        C572   1.279       .  A
O568       Cu570   2.012       .  S
O568        C571   1.279       .  A
Cu569      Cu570   2.374       .  S
C571        C854   1.470       .  S
C572       C1373   1.482       .  S
C573       C1722   1.471       .  S
C574        C869   1.479       .  S
O575       Cu583   2.009       .  S
O575        C585   1.279       .  A
O576       Cu583   2.015       .  S
O576        C586   1.279       .  A
O577       Cu583   2.015       .  S
O577        C587   1.278       .  A
O578       Cu583   2.006       .  S
O578        C588   1.278       .  A
O579       Cu584   2.004       .  S
O579        C588   1.277       .  A
O580       Cu584   2.002       .  S
O580        C587   1.278       .  A
O581       Cu584   2.001       .  S
O581        C586   1.277       .  A
O582       Cu584   1.998       .  S
O582        C585   1.276       .  A
Cu583      Cu584   2.369       .  S
C585       C1050   1.485       .  S
C586        C813   1.478       .  S
C587       C1582   1.487       .  S
C588        C882   1.484       .  S
O589       Cu597   2.005       .  S
O589        C599   1.279       .  A
O590       Cu597   2.009       .  S
O590        C600   1.278       .  A
O591       Cu597   1.999       .  S
O591        C601   1.276       .  A
O592       Cu597   1.997       .  S
O592        C602   1.277       .  A
O593       Cu598   2.009       .  S
O593        C602   1.278       .  A
O594       Cu598   2.021       .  S
O594        C601   1.280       .  A
O595       Cu598   2.007       .  S
O595        C600   1.278       .  A
O596       Cu598   2.007       .  S
O596        C599   1.277       .  A
Cu597      Cu598   2.366       .  S
C599       C1274   1.491       .  S
C600        C785   1.478       .  S
C601        C826   1.490       .  S
C602        C897   1.488       .  S
O603       Cu611   2.006       .  S
O603        C613   1.277       .  A
O604       Cu611   2.010       .  S
O604        C614   1.278       .  A
O605       Cu611   2.015       .  S
O605        C615   1.279       .  A
O606       Cu611   2.005       .  S
O606        C616   1.278       .  A
O607       Cu612   2.008       .  S
O607        C616   1.278       .  A
O608       Cu612   2.000       .  S
O608        C615   1.277       .  A
O609       Cu612   2.011       .  S
O609        C614   1.279       .  A
O610       Cu612   2.011       .  S
O610        C613   1.277       .  A
Cu611      Cu612   2.370       .  S
C613        C798   1.471       .  S
C614       C1134   1.485       .  S
C615        C841   1.489       .  S
C616       C1498   1.486       .  S
O617       Cu625   1.998       .  S
O617        C627   1.277       .  A
O618       Cu625   2.006       .  S
O618        C628   1.277       .  A
O619       Cu625   2.018       .  S
O619        C629   1.279       .  A
O620       Cu625   2.010       .  S
O620        C630   1.278       .  A
O621       Cu626   2.008       .  S
O621        C630   1.278       .  A
O622       Cu626   2.005       .  S
O622        C629   1.278       .  A
O623       Cu626   1.999       .  S
O623        C628   1.277       .  A
O624       Cu626   2.008       .  S
O624        C627   1.279       .  A
Cu625      Cu626   2.372       .  S
C627        C994   1.484       .  S
C628        C757   1.472       .  S
C629       C1610   1.486       .  S
C630        C729   1.476       .  S
O631       Cu639   2.007       .  S
O631        C641   1.278       .  A
O632       Cu639   2.006       .  S
O632        C642   1.278       .  A
O633       Cu639   2.009       .  S
O633        C643   1.278       .  A
O634       Cu639   2.009       .  S
O634        C644   1.277       .  A
O635       Cu640   2.008       .  S
O635        C644   1.279       .  A
O636       Cu640   2.008       .  S
O636        C643   1.278       .  A
O637       Cu640   2.007       .  S
O637        C642   1.277       .  A
O638       Cu640   2.001       .  S
O638        C641   1.278       .  A
Cu639      Cu640   2.366       .  S
C641        C938   1.487       .  S
C642        C770   1.486       .  S
C643        C701   1.485       .  S
C644       C1218   1.492       .  S
O645       Cu653   1.995       .  S
O645        C655   1.276       .  A
O646       Cu653   1.996       .  S
O646        C656   1.277       .  A
O647       Cu653   2.001       .  S
O647        C657   1.277       .  A
O648       Cu653   2.008       .  S
O648        C658   1.278       .  A
O649       Cu654   2.003       .  S
O649        C658   1.277       .  A
O650       Cu654   2.008       .  S
O650        C657   1.278       .  A
O651       Cu654   2.006       .  S
O651        C656   1.278       .  A
O652       Cu654   2.010       .  S
O652        C655   1.278       .  A
Cu653      Cu654   2.372       .  S
C655        C673   1.471       .  S
C656       C1442   1.482       .  S
C657       C1162   1.482       .  S
C658        C714   1.479       .  S
O659       Cu667   2.010       .  S
O659        C669   1.279       .  A
O660       Cu667   2.009       .  S
O660        C670   1.277       .  A
O661       Cu667   2.001       .  S
O661        C671   1.278       .  A
O662       Cu667   2.005       .  S
O662        C672   1.277       .  A
O663       Cu668   2.003       .  S
O663        C672   1.278       .  A
O664       Cu668   2.002       .  S
O664        C671   1.277       .  A
O665       Cu668   2.005       .  S
O665        C670   1.278       .  A
O666       Cu668   2.001       .  S
O666        C669   1.277       .  A
Cu667      Cu668   2.367       .  S
C669        C686   1.487       .  S
C670       C1345   1.490       .  S
C671        C742   1.484       .  S
C672       C1666   1.481       .  S
C673        C674   1.410       .  A
C673        C678   1.402       .  A
C674        C675   1.402       .  A
C674        N679   1.437       .  S
C675        C676   1.401       .  A
C675        H680   1.084       .  S
C676        C681   1.479       .  S
C676        C677   1.411       .  A
C677        C678   1.405       .  A
C677        N682   1.437       .  S
C678        H683   1.084       .  S
N679        H699   1.045       .  S
N679        H700   1.046       .  S
C681        C684   1.399       .  A
C681        C688   1.408       .  A
N682        H697   1.046       .  S
N682        H698   1.045       .  S
C684        C685   1.404       .  A
C684        H689   1.084       .  S
C685        C686   1.418       .  A
C685        N690   1.438       .  S
C686        C687   1.407       .  A
C687        C688   1.404       .  A
C687        H691   1.083       .  S
C688        N692   1.438       .  S
N690        H693   1.046       .  S
N690        H694   1.046       .  S
N692        H695   1.046       .  S
N692        H696   1.046       .  S
C701        C702   1.416       .  A
C701        C706   1.406       .  A
C702        C703   1.405       .  A
C702        N707   1.438       .  S
C703        C704   1.402       .  A
C703        H708   1.084       .  S
C704        C709   1.483       .  S
C704        C705   1.409       .  A
C705        C706   1.405       .  A
C705        N710   1.438       .  S
C706        H711   1.083       .  S
N707        H727   1.046       .  S
N707        H728   1.046       .  S
C709        C712   1.402       .  A
C709        C716   1.410       .  A
N710        H725   1.046       .  S
N710        H726   1.045       .  S
C712        C713   1.406       .  A
C712        H717   1.084       .  S
C713        C714   1.414       .  A
C713        N718   1.438       .  S
C714        C715   1.404       .  A
C715        C716   1.404       .  A
C715        H719   1.084       .  S
C716        N720   1.438       .  S
N718        H721   1.045       .  S
N718        H722   1.046       .  S
N720        H723   1.046       .  S
N720        H724   1.046       .  S
C729        C730   1.412       .  A
C729        C734   1.403       .  A
C730        C731   1.405       .  A
C730        N735   1.438       .  S
C731        C732   1.403       .  A
C731        H736   1.084       .  S
C732        C737   1.482       .  S
C732        C733   1.410       .  A
C733        C734   1.405       .  A
C733        N738   1.438       .  S
C734        H739   1.084       .  S
N735        H755   1.046       .  S
N735        H756   1.046       .  S
C737        C740   1.402       .  A
C737        C744   1.408       .  A
N738        H753   1.046       .  S
N738        H754   1.046       .  S
C740        C741   1.405       .  A
C740        H745   1.084       .  S
C741        C742   1.416       .  A
C741        N746   1.438       .  S
C742        C743   1.406       .  A
C743        C744   1.403       .  A
C743        H747   1.083       .  S
C744        N748   1.438       .  S
N746        H749   1.045       .  S
N746        H750   1.046       .  S
N748        H751   1.046       .  S
N748        H752   1.045       .  S
C757        C758   1.411       .  A
C757        C762   1.403       .  A
C758        C759   1.404       .  A
C758        N763   1.438       .  S
C759        C760   1.403       .  A
C759        H764   1.084       .  S
C760        C765   1.479       .  S
C760        C761   1.409       .  A
C761        C762   1.403       .  A
C761        N766   1.438       .  S
C762        H767   1.084       .  S
N763        H783   1.046       .  S
N763        H784   1.046       .  S
C765        C768   1.401       .  A
C765        C772   1.407       .  A
N766        H781   1.046       .  S
N766        H782   1.046       .  S
C768        C769   1.405       .  A
C768        H773   1.084       .  S
C769        C770   1.417       .  A
C769        N774   1.438       .  S
C770        C771   1.407       .  A
C771        C772   1.403       .  A
C771        H775   1.083       .  S
C772        N776   1.438       .  S
N774        H777   1.045       .  S
N774        H778   1.046       .  S
N776        H779   1.046       .  S
N776        H780   1.046       .  S
C785        C786   1.412       .  A
C785        C790   1.405       .  A
C786        C787   1.405       .  A
C786        N791   1.438       .  S
C787        C788   1.401       .  A
C787        H792   1.084       .  S
C788        C793   1.478       .  S
C788        C789   1.408       .  A
C789        C790   1.406       .  A
C789        N794   1.438       .  S
C790        H795   1.084       .  S
N791        H811   1.045       .  S
N791        H812   1.046       .  S
C793        C796   1.401       .  A
C793        C800   1.409       .  A
N794        H809   1.046       .  S
N794        H810   1.045       .  S
C796        C797   1.406       .  A
C796        H801   1.084       .  S
C797        C798   1.411       .  A
C797        N802   1.438       .  S
C798        C799   1.401       .  A
C799        C800   1.405       .  A
C799        H803   1.084       .  S
C800        N804   1.438       .  S
N802        H805   1.046       .  S
N802        H806   1.045       .  S
N804        H807   1.046       .  S
N804        H808   1.045       .  S
C813        C814   1.411       .  A
C813        C818   1.403       .  A
C814        C815   1.406       .  A
C814        N819   1.438       .  S
C815        C816   1.405       .  A
C815        H820   1.083       .  S
C816        C821   1.490       .  S
C816        C817   1.413       .  A
C817        C818   1.405       .  A
C817        N822   1.438       .  S
C818        H823   1.084       .  S
N819        H839   1.046       .  S
N819        H840   1.045       .  S
C821        C824   1.402       .  A
C821        C828   1.411       .  A
N822        H837   1.046       .  S
N822        H838   1.045       .  S
C824        C825   1.406       .  A
C824        H829   1.084       .  S
C825        C826   1.418       .  A
C825        N830   1.438       .  S
C826        C827   1.406       .  A
C827        C828   1.406       .  A
C827        H831   1.083       .  S
C828        N832   1.438       .  S
N830        H833   1.046       .  S
N830        H834   1.045       .  S
N832        H835   1.046       .  S
N832        H836   1.045       .  S
C841        C842   1.418       .  A
C841        C846   1.408       .  A
C842        C843   1.404       .  A
C842        N847   1.438       .  S
C843        C844   1.400       .  A
C843        H848   1.084       .  S
C844        C849   1.482       .  S
C844        C845   1.408       .  A
C845        C846   1.405       .  A
C845        N850   1.438       .  S
C846        H851   1.083       .  S
N847        H867   1.046       .  S
N847        H868   1.046       .  S
C849        C852   1.404       .  A
C849        C856   1.410       .  A
N850        H865   1.046       .  S
N850        H866   1.046       .  S
C852        C853   1.404       .  A
C852        H857   1.084       .  S
C853        C854   1.409       .  A
C853        N858   1.438       .  S
C854        C855   1.402       .  A
C855        C856   1.403       .  A
C855        H859   1.084       .  S
C856        N860   1.438       .  S
N858        H861   1.045       .  S
N858        H862   1.046       .  S
N860        H863   1.046       .  S
N860        H864   1.046       .  S
C869        C870   1.412       .  A
C869        C874   1.405       .  A
C870        C871   1.404       .  A
C870        N875   1.438       .  S
C871        C872   1.402       .  A
C871        H876   1.084       .  S
C872        C877   1.482       .  S
C872        C873   1.410       .  A
C873        C874   1.405       .  A
C873        N878   1.438       .  S
C874        H879   1.084       .  S
N875        H895   1.046       .  S
N875        H896   1.045       .  S
C877        C880   1.401       .  A
C877        C884   1.409       .  A
N878        H893   1.046       .  S
N878        H894   1.045       .  S
C880        C881   1.405       .  A
C880        H885   1.084       .  S
C881        C882   1.416       .  A
C881        N886   1.438       .  S
C882        C883   1.406       .  A
C883        C884   1.404       .  A
C883        H887   1.083       .  S
C884        N888   1.438       .  S
N886        H889   1.045       .  S
N886        H890   1.046       .  S
N888        H891   1.046       .  S
N888        H892   1.046       .  S
C897        C898   1.417       .  A
C897        C902   1.409       .  A
C898        C899   1.404       .  A
C898        N903   1.438       .  S
C899        C900   1.402       .  A
C899        H904   1.084       .  S
C900        C905   1.482       .  S
C900        C901   1.407       .  A
C901        C902   1.403       .  A
C901        N906   1.438       .  S
C902        H907   1.083       .  S
N903        H923   1.046       .  S
N903        H924   1.046       .  S
C905        C908   1.403       .  A
C905        C912   1.409       .  A
N906        H921   1.046       .  S
N906        H922   1.045       .  S
C908        C909   1.405       .  A
C908        H913   1.084       .  S
C909        C910   1.414       .  A
C909        N914   1.438       .  S
C910        C911   1.404       .  A
C911        C912   1.401       .  A
C911        H915   1.084       .  S
C912        N916   1.438       .  S
N914        H917   1.046       .  S
N914        H918   1.045       .  S
N916        H919   1.046       .  S
N916        H920   1.045       .  S
C925        C926   1.415       .  A
C925        C930   1.406       .  A
C926        C927   1.406       .  A
C926        N931   1.438       .  S
C927        C928   1.401       .  A
C927        H932   1.084       .  S
C928        C933   1.475       .  S
C928        C929   1.406       .  A
C929        C930   1.403       .  A
C929        N934   1.438       .  S
C930        H935   1.084       .  S
N931        H951   1.046       .  S
N931        H952   1.046       .  S
C933        C936   1.399       .  A
C933        C940   1.405       .  A
N934        H949   1.046       .  S
N934        H950   1.046       .  S
C936        C937   1.406       .  A
C936        H941   1.084       .  S
C937        C938   1.418       .  A
C937        N942   1.438       .  S
C938        C939   1.408       .  A
C939        C940   1.403       .  A
C939        H943   1.083       .  S
C940        N944   1.438       .  S
N942        H945   1.046       .  S
N942        H946   1.046       .  S
N944        H947   1.046       .  S
N944        H948   1.046       .  S
C953        C954   1.411       .  A
C953        C958   1.406       .  A
C954        C955   1.404       .  A
C954        N959   1.438       .  S
C955        C956   1.401       .  A
C955        H960   1.084       .  S
C956        C961   1.476   1_556  S
C956        C957   1.409       .  A
C957        C958   1.405       .  A
C957        N962   1.438       .  S
C958        H963   1.084       .  S
N959        H979   1.046       .  S
N959        H980   1.045       .  S
C961        C964   1.400       .  A
C961        C968   1.410       .  A
N962        H977   1.046       .  S
N962        H978   1.044       .  S
C964        C965   1.403       .  A
C964        H969   1.084       .  S
C965        C966   1.411       .  A
C965        N970   1.438       .  S
C966        C967   1.405       .  A
C967        C968   1.406       .  A
C967        H971   1.084       .  S
C968        N972   1.439       .  S
N970        H973   1.046       .  S
N970        H974   1.046       .  S
N972        H975   1.046       .  S
N972        H976   1.043       .  S
C981        C982   1.419       .  A
C981        C986   1.409       .  A
C982        C983   1.407       .  A
C982        N987   1.438       .  S
C983        C984   1.399       .  A
C983        H988   1.084       .  S
C984        C989   1.475       .  S
C984        C985   1.404       .  A
C985        C986   1.402       .  A
C985        N990   1.438       .  S
C986        H991   1.083       .  S
N987       H1007   1.045       .  S
N987       H1008   1.046       .  S
C989        C992   1.398       .  A
C989        C996   1.406       .  A
N990       H1005   1.046       .  S
N990       H1006   1.045       .  S
C992        C993   1.403       .  A
C992        H997   1.084       .  S
C993        C994   1.417       .  A
C993        N998   1.438       .  S
C994        C995   1.408       .  A
C995        C996   1.405       .  A
C995        H999   1.083       .  S
C996       N1000   1.438       .  S
N998       H1001   1.045       .  S
N998       H1002   1.046       .  S
N1000      H1003   1.046       .  S
N1000      H1004   1.046       .  S
C1009      C1010   1.413       .  A
C1009      C1014   1.405       .  A
C1010      C1011   1.402       .  A
C1010      N1015   1.438       .  S
C1011      C1012   1.399       .  A
C1011      H1016   1.084       .  S
C1012      C1017   1.477   1_655  S
C1012      C1013   1.409       .  A
C1013      C1014   1.406       .  A
C1013      N1018   1.438       .  S
C1014      H1019   1.084       .  S
N1015      H1035   1.046       .  S
N1015      H1036   1.046       .  S
C1017      C1020   1.400       .  A
C1017      C1024   1.408       .  A
N1018      H1033   1.046       .  S
N1018      H1034   1.046       .  S
C1020      C1021   1.405       .  A
C1020      H1025   1.084       .  S
C1021      C1022   1.415       .  A
C1021      N1026   1.438       .  S
C1022      C1023   1.404       .  A
C1023      C1024   1.403       .  A
C1023      H1027   1.084       .  S
C1024      N1028   1.438       .  S
N1026      H1029   1.045       .  S
N1026      H1030   1.045       .  S
N1028      H1031   1.046       .  S
N1028      H1032   1.046       .  S
C1037      C1038   1.420       .  A
C1037      C1042   1.408       .  A
C1038      C1039   1.403       .  A
C1038      N1043   1.438       .  S
C1039      C1040   1.398       .  A
C1039      H1044   1.084       .  S
C1040      C1045   1.477       .  S
C1040      C1041   1.407       .  A
C1041      C1042   1.403       .  A
C1041      N1046   1.438       .  S
C1042      H1047   1.083       .  S
N1043      H1063   1.045       .  S
N1043      H1064   1.046       .  S
C1045      C1048   1.399       .  A
C1045      C1052   1.407       .  A
N1046      H1061   1.046       .  S
N1046      H1062   1.045       .  S
C1048      C1049   1.404       .  A
C1048      H1053   1.084       .  S
C1049      C1050   1.418       .  A
C1049      N1054   1.438       .  S
C1050      C1051   1.407       .  A
C1051      C1052   1.404       .  A
C1051      H1055   1.083       .  S
C1052      N1056   1.438       .  S
N1054      H1057   1.046       .  S
N1054      H1058   1.045       .  S
N1056      H1059   1.046       .  S
N1056      H1060   1.045       .  S
C1065      C1066   1.412       .  A
C1065      C1070   1.403       .  A
C1066      C1067   1.402       .  A
C1066      N1071   1.438       .  S
C1067      C1068   1.399       .  A
C1067      H1072   1.084       .  S
C1068      C1073   1.471   1_455  S
C1068      C1069   1.408       .  A
C1069      C1070   1.404       .  A
C1069      N1074   1.439       .  S
C1070      H1075   1.084       .  S
N1071      H1091   1.045       .  S
N1071      H1092   1.046       .  S
C1073      C1076   1.400       .  A
C1073      C1080   1.408       .  A
N1074      H1089   1.045       .  S
N1074      H1090   1.044       .  S
C1076      C1077   1.404       .  A
C1076      H1081   1.084       .  S
C1077      C1078   1.413       .  A
C1077      N1082   1.438       .  S
C1078      C1079   1.403       .  A
C1079      C1080   1.402       .  A
C1079      H1083   1.084       .  S
C1080      N1084   1.439       .  S
N1082      H1085   1.046       .  S
N1082      H1086   1.046       .  S
N1084      H1087   1.045       .  S
N1084      H1088   1.044       .  S
C1093      C1094   1.414       .  A
C1093      C1098   1.406       .  A
C1094      C1095   1.406       .  A
C1094      N1099   1.438       .  S
C1095      C1096   1.403       .  A
C1095      H1100   1.084       .  S
C1096      C1101   1.487   1_556  S
C1096      C1097   1.411       .  A
C1097      C1098   1.406       .  A
C1097      N1102   1.438       .  S
C1098      H1103   1.084       .  S
N1099      H1119   1.046       .  S
N1099      H1120   1.045       .  S
C1101      C1104   1.402       .  A
C1101      C1108   1.411       .  A
N1102      H1117   1.046       .  S
N1102      H1118   1.045       .  S
C1104      C1105   1.406       .  A
C1104      H1109   1.084       .  S
C1105      C1106   1.416       .  A
C1105      N1110   1.438       .  S
C1106      C1107   1.405       .  A
C1107      C1108   1.407       .  A
C1107      H1111   1.084       .  S
C1108      N1112   1.438       .  S
N1110      H1113   1.046       .  S
N1110      H1114   1.046       .  S
N1112      H1115   1.046       .  S
N1112      H1116   1.045       .  S
C1121      C1122   1.414       .  A
C1121      C1126   1.405       .  A
C1122      C1123   1.405       .  A
C1122      N1127   1.438       .  S
C1123      C1124   1.400       .  A
C1123      H1128   1.084       .  S
C1124      C1129   1.478       .  S
C1124      C1125   1.408       .  A
C1125      C1126   1.406       .  A
C1125      N1130   1.437       .  S
C1126      H1131   1.084       .  S
N1127      H1147   1.046       .  S
N1127      H1148   1.045       .  S
C1129      C1132   1.400       .  A
C1129      C1136   1.407       .  A
N1130      H1145   1.046       .  S
N1130      H1146   1.045       .  S
C1132      C1133   1.407       .  A
C1132      H1137   1.084       .  S
C1133      C1134   1.416       .  A
C1133      N1138   1.438       .  S
C1134      C1135   1.406       .  A
C1135      C1136   1.405       .  A
C1135      H1139   1.083       .  S
C1136      N1140   1.438       .  S
N1138      H1141   1.046       .  S
N1138      H1142   1.045       .  S
N1140      H1143   1.046       .  S
N1140      H1144   1.045       .  S
C1149      C1150   1.418       .  A
C1149      C1154   1.408       .  A
C1150      C1151   1.403       .  A
C1150      N1155   1.438       .  S
C1151      C1152   1.397       .  A
C1151      H1156   1.084       .  S
C1152      C1157   1.472       .  S
C1152      C1153   1.406       .  A
C1153      C1154   1.405       .  A
C1153      N1158   1.438       .  S
C1154      H1159   1.083       .  S
N1155      H1175   1.045       .  S
N1155      H1176   1.046       .  S
C1157      C1160   1.398       .  A
C1157      C1164   1.406       .  A
N1158      H1173   1.046       .  S
N1158      H1174   1.045       .  S
C1160      C1161   1.403       .  A
C1160      H1165   1.084       .  S
C1161      C1162   1.417       .  A
C1161      N1166   1.438       .  S
C1162      C1163   1.407       .  A
C1163      C1164   1.404       .  A
C1163      H1167   1.083       .  S
C1164      N1168   1.438       .  S
N1166      H1169   1.046       .  S
N1166      H1170   1.044       .  S
N1168      H1171   1.046       .  S
N1168      H1172   1.044       .  S
C1177      C1178   1.414       .  A
C1177      C1182   1.405       .  A
C1178      C1179   1.404       .  A
C1178      N1183   1.438       .  S
C1179      C1180   1.401       .  A
C1179      H1184   1.084       .  S
C1180      C1185   1.481   1_556  S
C1180      C1181   1.410       .  A
C1181      C1182   1.404       .  A
C1181      N1186   1.438       .  S
C1182      H1187   1.084       .  S
N1183      H1203   1.046       .  S
N1183      H1204   1.045       .  S
C1185      C1188   1.402       .  A
C1185      C1192   1.408       .  A
N1186      H1201   1.046       .  S
N1186      H1202   1.046       .  S
C1188      C1189   1.405       .  A
C1188      H1193   1.084       .  S
C1189      C1190   1.416       .  A
C1189      N1194   1.438       .  S
C1190      C1191   1.406       .  A
C1191      C1192   1.402       .  A
C1191      H1195   1.083       .  S
C1192      N1196   1.438       .  S
N1194      H1197   1.046       .  S
N1194      H1198   1.045       .  S
N1196      H1199   1.046       .  S
N1196      H1200   1.045       .  S
C1205      C1206   1.416       .  A
C1205      C1210   1.407       .  A
C1206      C1207   1.408       .  A
C1206      N1211   1.438       .  S
C1207      C1208   1.402       .  A
C1207      H1212   1.084       .  S
C1208      C1213   1.481       .  S
C1208      C1209   1.406       .  A
C1209      C1210   1.404       .  A
C1209      N1214   1.438       .  S
C1210      H1215   1.083       .  S
N1211      H1231   1.046       .  S
N1211      H1232   1.045       .  S
C1213      C1216   1.401       .  A
C1213      C1220   1.406       .  A
N1214      H1229   1.046       .  S
N1214      H1230   1.046       .  S
C1216      C1217   1.408       .  A
C1216      H1221   1.084       .  S
C1217      C1218   1.420       .  A
C1217      N1222   1.438       .  S
C1218      C1219   1.409       .  A
C1219      C1220   1.404       .  A
C1219      H1223   1.083       .  S
C1220      N1224   1.438       .  S
N1222      H1225   1.046       .  S
N1222      H1226   1.045       .  S
N1224      H1227   1.046       .  S
N1224      H1228   1.046       .  S
C1233      C1234   1.414       .  A
C1233      C1238   1.405       .  A
C1234      C1235   1.404       .  A
C1234      N1239   1.438       .  S
C1235      C1236   1.402       .  A
C1235      H1240   1.084       .  S
C1236      C1241   1.481   1_565  S
C1236      C1237   1.409       .  A
C1237      C1238   1.404       .  A
C1237      N1242   1.438       .  S
C1238      H1243   1.084       .  S
N1239      H1259   1.045       .  S
N1239      H1260   1.046       .  S
C1241      C1244   1.402       .  A
C1241      C1248   1.409       .  A
N1242      H1257   1.046       .  S
N1242      H1258   1.046       .  S
C1244      C1245   1.404       .  A
C1244      H1249   1.084       .  S
C1245      C1246   1.415       .  A
C1245      N1250   1.438       .  S
C1246      C1247   1.407       .  A
C1247      C1248   1.403       .  A
C1247      H1251   1.083       .  S
C1248      N1252   1.438       .  S
N1250      H1253   1.046       .  S
N1250      H1254   1.046       .  S
N1252      H1255   1.046       .  S
N1252      H1256   1.045       .  S
C1261      C1262   1.416       .  A
C1261      C1266   1.407       .  A
C1262      C1263   1.408       .  A
C1262      N1267   1.438       .  S
C1263      C1264   1.401       .  A
C1263      H1268   1.084       .  S
C1264      C1269   1.477       .  S
C1264      C1265   1.406       .  A
C1265      C1266   1.402       .  A
C1265      N1270   1.438       .  S
C1266      H1271   1.084       .  S
N1267      H1287   1.045       .  S
N1267      H1288   1.046       .  S
C1269      C1272   1.399       .  A
C1269      C1276   1.405       .  A
N1270      H1285   1.046       .  S
N1270      H1286   1.046       .  S
C1272      C1273   1.406       .  A
C1272      H1277   1.084       .  S
C1273      C1274   1.420       .  A
C1273      N1278   1.438       .  S
C1274      C1275   1.409       .  A
C1275      C1276   1.403       .  A
C1275      H1279   1.083       .  S
C1276      N1280   1.438       .  S
N1278      H1281   1.046       .  S
N1278      H1282   1.045       .  S
N1280      H1283   1.046       .  S
N1280      H1284   1.045       .  S
C1289      C1290   1.416       .  A
C1289      C1294   1.404       .  A
C1290      C1291   1.405       .  A
C1290      N1295   1.438       .  S
C1291      C1292   1.402       .  A
C1291      H1296   1.083       .  S
C1292      C1297   1.489   1_565  S
C1292      C1293   1.412       .  A
C1293      C1294   1.405       .  A
C1293      N1298   1.438       .  S
C1294      H1299   1.084       .  S
N1295      H1315   1.045       .  S
N1295      H1316   1.046       .  S
C1297      C1300   1.403       .  A
C1297      C1304   1.412       .  A
N1298      H1313   1.046       .  S
N1298      H1314   1.046   1_565  S
C1300      C1301   1.404       .  A
C1300      H1305   1.084       .  S
C1301      C1302   1.415       .  A
C1301      N1306   1.438       .  S
C1302      C1303   1.406       .  A
C1303      C1304   1.406       .  A
C1303      H1307   1.083       .  S
C1304      N1308   1.438       .  S
N1306      H1309   1.045       .  S
N1306      H1310   1.046       .  S
N1308      H1311   1.046       .  S
N1308      H1312   1.045       .  S
C1317      C1318   1.414       .  A
C1317      C1322   1.402       .  A
C1318      C1319   1.407       .  A
C1318      N1323   1.438       .  S
C1319      C1320   1.402       .  A
C1319      H1324   1.084       .  S
C1320      C1325   1.480   1_554  S
C1320      C1321   1.409       .  A
C1321      C1322   1.403       .  A
C1321      N1326   1.438       .  S
C1322      H1327   1.084       .  S
N1323      H1343   1.046       .  S
N1323      H1344   1.046       .  S
C1325      C1328   1.401       .  A
C1325      C1332   1.408       .  A
N1326      H1341   1.046       .  S
N1326      H1342   1.046       .  S
C1328      C1329   1.403       .  A
C1328      H1333   1.084       .  S
C1329      C1330   1.414       .  A
C1329      N1334   1.438       .  S
C1330      C1331   1.407       .  A
C1331      C1332   1.406       .  A
C1331      H1335   1.084       .  S
C1332      N1336   1.438       .  S
N1334      H1337   1.045       .  S
N1334      H1338   1.046       .  S
N1336      H1339   1.046       .  S
N1336      H1340   1.046       .  S
C1345      C1346   1.420       .  A
C1345      C1350   1.408       .  A
C1346      C1347   1.408       .  A
C1346      N1351   1.438       .  S
C1347      C1348   1.399       .  A
C1347      H1352   1.084       .  S
C1348      C1353   1.477       .  S
C1348      C1349   1.405       .  A
C1349      C1350   1.403       .  A
C1349      N1354   1.438       .  S
C1350      H1355   1.083       .  S
N1351      H1371   1.045       .  S
N1351      H1372   1.046       .  S
C1353      C1356   1.398       .  A
C1353      C1360   1.405       .  A
N1354      H1369   1.045       .  S
N1354      H1370   1.046       .  S
C1356      C1357   1.405       .  A
C1356      H1361   1.084       .  S
C1357      C1358   1.419       .  A
C1357      N1362   1.438       .  S
C1358      C1359   1.410       .  A
C1359      C1360   1.406       .  A
C1359      H1363   1.083       .  S
C1360      N1364   1.438       .  S
N1362      H1365   1.046       .  S
N1362      H1366   1.046       .  S
N1364      H1367   1.046       .  S
N1364      H1368   1.045       .  S
C1373      C1374   1.418       .  A
C1373      C1378   1.406       .  A
C1374      C1375   1.404       .  A
C1374      N1379   1.438       .  S
C1375      C1376   1.399       .  A
C1375      H1380   1.084       .  S
C1376      C1381   1.476       .  S
C1376      C1377   1.407       .  A
C1377      C1378   1.402       .  A
C1377      N1382   1.438       .  S
C1378      H1383   1.083       .  S
N1379      H1399   1.045       .  S
N1379      H1400   1.046       .  S
C1381      C1384   1.399       .  A
C1381      C1388   1.406       .  A
N1382      H1397   1.046       .  S
N1382      H1398   1.046       .  S
C1384      C1385   1.404       .  A
C1384      H1389   1.084       .  S
C1385      C1386   1.419       .  A
C1385      N1390   1.438       .  S
C1386      C1387   1.408       .  A
C1387      C1388   1.402       .  A
C1387      H1391   1.083       .  S
C1388      N1392   1.438       .  S
N1390      H1393   1.046       .  S
N1390      H1394   1.045       .  S
N1392      H1395   1.046       .  S
N1392      H1396   1.045       .  S
C1401      C1402   1.411       .  A
C1401      C1406   1.403       .  A
C1402      C1403   1.404       .  A
C1402      N1407   1.438       .  S
C1403      C1404   1.400       .  A
C1403      H1408   1.084       .  S
C1404      C1409   1.474   1_554  S
C1404      C1405   1.408       .  A
C1405      C1406   1.404       .  A
C1405      N1410   1.437       .  S
C1406      H1411   1.084       .  S
N1407      H1427   1.046       .  S
N1407      H1428   1.046       .  S
C1409      C1412   1.399       .  A
C1409      C1416   1.409       .  A
N1410      H1425   1.046       .  S
N1410      H1426   1.046       .  S
C1412      C1413   1.403       .  A
C1412      H1417   1.084       .  S
C1413      C1414   1.410       .  A
C1413      N1418   1.438       .  S
C1414      C1415   1.403       .  A
C1415      C1416   1.407       .  A
C1415      H1419   1.084       .  S
C1416      N1420   1.438       .  S
N1418      H1421   1.047       .  S
N1418      H1422   1.045       .  S
N1420      H1423   1.045       .  S
N1420      H1424   1.046       .  S
C1429      C1430   1.414       .  A
C1429      C1434   1.407       .  A
C1430      C1431   1.403       .  A
C1430      N1435   1.437       .  S
C1431      C1432   1.398       .  A
C1431      H1436   1.084       .  S
C1432      C1437   1.471       .  S
C1432      C1433   1.406       .  A
C1433      C1434   1.403       .  A
C1433      N1438   1.438       .  S
C1434      H1439   1.084       .  S
N1435      H1455   1.044       .  S
N1435      H1456   1.046       .  S
C1437      C1440   1.397       .  A
C1437      C1444   1.406       .  A
N1438      H1453   1.046       .  S
N1438      H1454   1.045       .  S
C1440      C1441   1.403       .  A
C1440      H1445   1.084       .  S
C1441      C1442   1.417       .  A
C1441      N1446   1.438       .  S
C1442      C1443   1.407       .  A
C1443      C1444   1.404       .  A
C1443      H1447   1.083       .  S
C1444      N1448   1.438       .  S
N1446      H1449   1.046       .  S
N1446      H1450   1.046       .  S
N1448      H1451   1.046       .  S
N1448      H1452   1.045       .  S
C1457      C1458   1.413       .  A
C1457      C1462   1.405       .  A
C1458      C1459   1.407       .  A
C1458      N1463   1.438       .  S
C1459      C1460   1.402       .  A
C1459      H1464   1.084       .  S
C1460      C1465   1.477   1_655  S
C1460      C1461   1.408       .  A
C1461      C1462   1.404       .  A
C1461      N1466   1.438       .  S
C1462      H1467   1.084       .  S
N1463      H1483   1.046       .  S
N1463      H1484   1.046       .  S
C1465      C1468   1.400       .  A
C1465      C1472   1.410       .  A
N1466      H1481   1.045       .  S
N1466      H1482   1.044       .  S
C1468      C1469   1.404       .  A
C1468      H1473   1.084       .  S
C1469      C1470   1.410       .  A
C1469      N1474   1.438       .  S
C1470      C1471   1.404       .  A
C1471      C1472   1.407       .  A
C1471      H1475   1.084       .  S
C1472      N1476   1.438       .  S
N1474      H1477   1.045       .  S
N1474      H1478   1.046       .  S
N1476      H1479   1.045       .  S
N1476      H1480   1.044       .  S
C1485      C1486   1.417       .  A
C1485      C1490   1.408       .  A
C1486      C1487   1.406       .  A
C1486      N1491   1.438       .  S
C1487      C1488   1.402       .  A
C1487      H1492   1.084       .  S
C1488      C1493   1.484       .  S
C1488      C1489   1.408       .  A
C1489      C1490   1.404       .  A
C1489      N1494   1.438       .  S
C1490      H1495   1.083       .  S
N1491      H1511   1.045       .  S
N1491      H1512   1.046       .  S
C1493      C1496   1.402       .  A
C1493      C1500   1.409       .  A
N1494      H1509   1.046       .  S
N1494      H1510   1.045       .  S
C1496      C1497   1.406       .  A
C1496      H1501   1.084       .  S
C1497      C1498   1.416       .  A
C1497      N1502   1.438       .  S
C1498      C1499   1.406       .  A
C1499      C1500   1.404       .  A
C1499      H1503   1.083       .  S
C1500      N1504   1.438       .  S
N1502      H1505   1.045       .  S
N1502      H1506   1.046       .  S
N1504      H1507   1.046       .  S
N1504      H1508   1.045       .  S
C1513      C1514   1.412       .  A
C1513      C1518   1.403       .  A
C1514      C1515   1.406       .  A
C1514      N1519   1.438       .  S
C1515      C1516   1.402       .  A
C1515      H1520   1.084       .  S
C1516      C1521   1.480   1_655  S
C1516      C1517   1.409       .  A
C1517      C1518   1.403       .  A
C1517      N1522   1.438       .  S
C1518      H1523   1.084       .  S
N1519      H1539   1.046       .  S
N1519      H1540   1.045       .  S
C1521      C1524   1.401       .  A
C1521      C1528   1.407       .  A
N1522      H1537   1.046       .  S
N1522      H1538   1.046       .  S
C1524      C1525   1.404       .  A
C1524      H1529   1.084       .  S
C1525      C1526   1.417       .  A
C1525      N1530   1.438       .  S
C1526      C1527   1.407       .  A
C1527      C1528   1.404       .  A
C1527      H1531   1.083       .  S
C1528      N1532   1.438       .  S
N1530      H1533   1.045       .  S
N1530      H1534   1.045       .  S
N1532      H1535   1.046       .  S
N1532      H1536   1.046       .  S
C1541      C1542   1.415       .  A
C1541      C1546   1.404       .  A
C1542      C1543   1.404       .  A
C1542      N1547   1.438       .  S
C1543      C1544   1.402       .  A
C1543      H1548   1.084       .  S
C1544      C1549   1.482   1_554  S
C1544      C1545   1.410       .  A
C1545      C1546   1.403       .  A
C1545      N1550   1.438       .  S
C1546      H1551   1.084       .  S
N1547      H1567   1.046       .  S
N1547      H1568   1.045       .  S
C1549      C1552   1.401       .  A
C1549      C1556   1.410       .  A
N1550      H1565   1.046       .  S
N1550      H1566   1.045       .  S
C1552      C1553   1.402       .  A
C1552      H1557   1.084       .  S
C1553      C1554   1.414       .  A
C1553      N1558   1.437       .  S
C1554      C1555   1.405       .  A
C1555      C1556   1.404       .  A
C1555      H1559   1.084       .  S
C1556      N1560   1.438       .  S
N1558      H1561   1.047       .  S
N1558      H1562   1.044       .  S
N1560      H1563   1.046       .  S
N1560      H1564   1.046       .  S
C1569      C1570   1.419       .  A
C1569      C1574   1.409       .  A
C1570      C1571   1.404       .  A
C1570      N1575   1.438       .  S
C1571      C1572   1.399       .  A
C1571      H1576   1.084       .  S
C1572      C1577   1.479       .  S
C1572      C1573   1.407       .  A
C1573      C1574   1.406       .  A
C1573      N1578   1.438       .  S
C1574      H1579   1.083       .  S
N1575      H1595   1.045       .  S
N1575      H1596   1.046       .  S
C1577      C1580   1.400       .  A
C1577      C1584   1.407       .  A
N1578      H1593   1.045       .  S
N1578      H1594   1.046       .  S
C1580      C1581   1.407       .  A
C1580      H1585   1.084       .  S
C1581      C1582   1.418       .  A
C1581      N1586   1.438       .  S
C1582      C1583   1.407       .  A
C1583      C1584   1.403       .  A
C1583      H1587   1.083       .  S
C1584      N1588   1.438       .  S
N1586      H1589   1.046       .  S
N1586      H1590   1.045       .  S
N1588      H1591   1.045       .  S
N1588      H1592   1.046       .  S
C1597      C1598   1.418       .  A
C1597      C1602   1.408       .  A
C1598      C1599   1.408       .  A
C1598      N1603   1.438       .  S
C1599      C1600   1.403       .  A
C1599      H1604   1.084       .  S
C1600      C1605   1.490       .  S
C1600      C1601   1.410       .  A
C1601      C1602   1.405       .  A
C1601      N1606   1.438       .  S
C1602      H1607   1.083       .  S
N1603      H1623   1.046       .  S
N1603      H1624   1.046       .  S
C1605      C1608   1.403       .  A
C1605      C1612   1.412       .  A
N1606      H1621   1.046       .  S
N1606      H1622   1.045       .  S
C1608      C1609   1.405       .  A
C1608      H1613   1.084       .  S
C1609      C1610   1.414       .  A
C1609      N1614   1.438       .  S
C1610      C1611   1.406       .  A
C1611      C1612   1.408       .  A
C1611      H1615   1.083       .  S
C1612      N1616   1.438       .  S
N1614      H1617   1.046       .  S
N1614      H1618   1.046       .  S
N1616      H1619   1.046       .  S
N1616      H1620   1.045       .  S
C1625      C1626   1.416       .  A
C1625      C1630   1.407       .  A
C1626      C1627   1.403       .  A
C1626      N1631   1.438       .  S
C1627      C1628   1.401       .  A
C1627      H1632   1.084       .  S
C1628      C1633   1.482   1_556  S
C1628      C1629   1.409       .  A
C1629      C1630   1.404       .  A
C1629      N1634   1.438       .  S
C1630      H1635   1.084       .  S
N1631      H1651   1.045       .  S
N1631      H1652   1.046       .  S
C1633      C1636   1.401       .  A
C1633      C1640   1.411       .  A
N1634      H1649   1.046       .  S
N1634      H1650   1.046       .  S
C1636      C1637   1.403       .  A
C1636      H1641   1.084       .  S
C1637      C1638   1.414       .  A
C1637      N1642   1.438       .  S
C1638      C1639   1.404       .  A
C1639      C1640   1.404       .  A
C1639      H1643   1.084       .  S
C1640      N1644   1.438       .  S
N1642      H1645   1.045       .  S
N1642      H1646   1.046       .  S
N1644      H1647   1.046       .  S
N1644      H1648   1.045       .  S
C1653      C1654   1.416       .  A
C1653      C1658   1.406       .  A
C1654      C1655   1.405       .  A
C1654      N1659   1.438       .  S
C1655      C1656   1.400       .  A
C1655      H1660   1.084       .  S
C1656      C1661   1.472       .  S
C1656      C1657   1.405       .  A
C1657      C1658   1.401       .  A
C1657      N1662   1.438       .  S
C1658      H1663   1.083       .  S
N1659      H1679   1.046       .  S
N1659      H1680   1.046       .  S
C1661      C1664   1.399       .  A
C1661      C1668   1.405       .  A
N1662      H1677   1.045       .  S
N1662      H1678   1.046       .  S
C1664      C1665   1.405       .  A
C1664      H1669   1.084       .  S
C1665      C1666   1.416       .  A
C1665      N1670   1.438       .  S
C1666      C1667   1.406       .  A
C1667      C1668   1.402       .  A
C1667      H1671   1.084       .  S
C1668      N1672   1.438       .  S
N1670      H1673   1.046       .  S
N1670      H1674   1.045       .  S
N1672      H1675   1.045       .  S
N1672      H1676   1.046       .  S
C1681      C1682   1.414       .  A
C1681      C1686   1.404       .  A
C1682      C1683   1.404       .  A
C1682      N1687   1.438       .  S
C1683      C1684   1.402       .  A
C1683      H1688   1.084       .  S
C1684      C1689   1.481   1_545  S
C1684      C1685   1.410       .  A
C1685      C1686   1.402       .  A
C1685      N1690   1.438       .  S
C1686      H1691   1.084       .  S
N1687      H1707   1.045       .  S
N1687      H1708   1.046       .  S
C1689      C1692   1.401       .  A
C1689      C1696   1.410       .  A
N1690      H1705   1.046       .  S
N1690      H1706   1.045       .  S
C1692      C1693   1.402       .  A
C1692      H1697   1.084       .  S
C1693      C1694   1.414       .  A
C1693      N1698   1.438       .  S
C1694      C1695   1.405       .  A
C1695      C1696   1.406       .  A
C1695      H1699   1.084       .  S
C1696      N1700   1.438       .  S
N1698      H1701   1.046       .  S
N1698      H1702   1.046       .  S
N1700      H1703   1.046       .  S
N1700      H1704   1.046       .  S
C1709      C1710   1.413       .  A
C1709      C1714   1.405       .  A
C1710      C1711   1.404       .  A
C1710      N1715   1.438       .  S
C1711      C1712   1.400       .  A
C1711      H1716   1.084       .  S
C1712      C1717   1.473       .  S
C1712      C1713   1.406       .  A
C1713      C1714   1.403       .  A
C1713      N1718   1.438       .  S
C1714      H1719   1.084       .  S
N1715      H1735   1.046       .  S
N1715      H1736   1.046       .  S
C1717      C1720   1.400       .  A
C1717      C1724   1.407       .  A
N1718      H1733   1.046       .  S
N1718      H1734   1.045       .  S
C1720      C1721   1.403       .  A
C1720      H1725   1.084       .  S
C1721      C1722   1.411       .  A
C1721      N1726   1.438       .  S
C1722      C1723   1.403       .  A
C1723      C1724   1.404       .  A
C1723      H1727   1.084       .  S
C1724      N1728   1.438       .  S
N1726      H1729   1.046       .  S
N1726      H1730   1.046       .  S
N1728      H1731   1.046       .  S
N1728      H1732   1.046       .  S
C1737      C1738   1.418       .  A
C1737      C1742   1.409       .  A
C1738      C1739   1.405       .  A
C1738      N1743   1.438       .  S
C1739      C1740   1.402       .  A
C1739      H1744   1.084       .  S
C1740      C1745   1.488   1_565  S
C1740      C1741   1.410       .  A
C1741      C1742   1.405       .  A
C1741      N1746   1.438       .  S
C1742      H1747   1.083       .  S
N1743      H1763   1.046       .  S
N1743      H1764   1.046       .  S
C1745      C1748   1.405       .  A
C1745      C1752   1.413       .  A
N1746      H1761   1.046       .  S
N1746      H1762   1.045       .  S
C1748      C1749   1.405       .  A
C1748      H1753   1.083       .  S
C1749      C1750   1.410       .  A
C1749      N1754   1.438       .  S
C1750      C1751   1.402       .  A
C1751      C1752   1.405       .  A
C1751      H1755   1.084       .  S
C1752      N1756   1.438       .  S
N1754      H1757   1.045       .  S
N1754      H1758   1.046       .  S
N1756      H1759   1.046       .  S
N1756      H1760   1.045       .  S
C1765      C1766   1.409       .  A
C1765      C1770   1.401       .  A
C1766      C1767   1.404       .  A
C1766      N1771   1.438       .  S
C1767      C1768   1.402       .  A
C1767      H1772   1.084       .  S
C1768      C1773   1.475   1_554  S
C1768      C1769   1.409       .  A
C1769      C1770   1.403       .  A
C1769      N1774   1.438       .  S
C1770      H1775   1.084       .  S
N1771      H1791   1.045       .  S
N1771      H1792   1.046       .  S
C1773      C1776   1.399       .  A
C1773      C1780   1.409       .  A
N1774      H1789   1.045       .  S
N1774      H1790   1.046       .  S
C1776      C1777   1.403       .  A
C1776      H1781   1.084       .  S
C1777      C1778   1.413       .  A
C1777      N1782   1.438       .  S
C1778      C1779   1.403       .  A
C1779      C1780   1.405       .  A
C1779      H1783   1.084       .  S
C1780      N1784   1.438       .  S
N1782      H1785   1.045       .  S
N1782      H1786   1.046       .  S
N1784      H1787   1.046       .  S
N1784      H1788   1.045       .  S
C1793      C1794   1.417       .  A
C1793      C1798   1.408       .  A
C1794      C1795   1.405       .  A
C1794      N1799   1.438       .  S
C1795      C1796   1.402       .  A
C1795      H1800   1.084       .  S
C1796      C1801   1.485   1_545  S
C1796      C1797   1.409       .  A
C1797      C1798   1.405       .  A
C1797      N1802   1.438       .  S
C1798      H1803   1.083       .  S
N1799      H1819   1.045       .  S
N1799      H1820   1.046       .  S
C1801      C1804   1.403       .  A
C1801      C1808   1.411       .  A
N1802      H1817   1.046       .  S
N1802      H1818   1.046       .  S
C1804      C1805   1.406       .  A
C1804      H1809   1.084       .  S
C1805      C1806   1.412       .  A
C1805      N1810   1.438       .  S
C1806      C1807   1.402       .  A
C1807      C1808   1.404       .  A
C1807      H1811   1.084       .  S
C1808      N1812   1.438       .  S
N1810      H1813   1.046       .  S
N1810      H1814   1.046       .  S
N1812      H1815   1.046       .  S
N1812      H1816   1.045       .  S
C1821      C1822   1.408       .  A
C1821      C1826   1.400       .  A
C1822      C1823   1.406       .  A
C1822      N1827   1.438       .  S
C1823      C1824   1.405       .  A
C1823      H1828   1.083       .  S
C1824      C1829   1.485   1_455  S
C1824      C1825   1.412       .  A
C1825      C1826   1.404       .  A
C1825      N1830   1.438       .  S
C1826      H1831   1.084       .  S
N1827      H1847   1.046       .  S
N1827      H1848   1.045       .  S
C1829      C1832   1.402       .  A
C1829      C1836   1.409       .  A
N1830      H1845   1.046       .  S
N1830      H1846   1.046       .  S
C1832      C1833   1.404       .  A
C1832      H1837   1.084       .  S
C1833      C1834   1.416       .  A
C1833      N1838   1.438       .  S
C1834      C1835   1.408       .  A
C1835      C1836   1.405       .  A
C1835      H1839   1.083       .  S
C1836      N1840   1.438       .  S
N1838      H1841   1.046       .  S
N1838      H1842   1.046       .  S
N1840      H1843   1.046       .  S
N1840      H1844   1.046       .  S
C1849      C1850   1.411       .  A
C1849      C1854   1.402       .  A
C1850      C1851   1.406       .  A
C1850      N1855   1.438       .  S
C1851      C1852   1.404       .  A
C1851      H1856   1.084       .  S
C1852      C1857   1.483   1_655  S
C1852      C1853   1.410       .  A
C1853      C1854   1.403       .  A
C1853      N1858   1.438       .  S
C1854      H1859   1.084       .  S
N1855      H1875   1.046       .  S
N1855      H1876   1.046       .  S
C1857      C1860   1.401       .  A
C1857      C1864   1.408       .  A
N1858      H1873   1.046       .  S
N1858      H1874   1.046       .  S
C1860      C1861   1.405       .  A
C1860      H1865   1.084       .  S
C1861      C1862   1.418       .  A
C1861      N1866   1.438       .  S
C1862      C1863   1.407       .  A
C1863      C1864   1.404       .  A
C1863      H1867   1.083       .  S
C1864      N1868   1.438       .  S
N1866      H1869   1.046       .  S
N1866      H1870   1.045       .  S
N1868      H1871   1.046       .  S
N1868      H1872   1.045       .  S
C1877      C1878   1.416       .  A
C1877      C1882   1.407       .  A
C1878      C1879   1.405       .  A
C1878      N1883   1.438       .  S
C1879      C1880   1.401       .  A
C1879      H1884   1.084       .  S
C1880      C1885   1.477   1_565  S
C1880      C1881   1.407       .  A
C1881      C1882   1.401       .  A
C1881      N1886   1.438       .  S
C1882      H1887   1.083       .  S
N1883      H1903   1.046       .  S
N1883      H1904   1.046       .  S
C1885      C1888   1.401       .  A
C1885      C1892   1.409       .  A
N1886      H1901   1.046       .  S
N1886      H1902   1.045       .  S
C1888      C1889   1.403       .  A
C1888      H1893   1.084       .  S
C1889      C1890   1.412       .  A
C1889      N1894   1.438       .  S
C1890      C1891   1.403       .  A
C1891      C1892   1.404       .  A
C1891      H1895   1.084       .  S
C1892      N1896   1.438       .  S
N1894      H1897   1.045       .  S
N1894      H1898   1.045       .  S
N1896      H1899   1.046       .  S
N1896      H1900   1.046       .  S
C1905      C1906   1.417       .  A
C1905      C1910   1.408       .  A
C1906      C1907   1.407       .  A
C1906      N1911   1.438       .  S
C1907      C1908   1.400       .  A
C1907      H1912   1.084       .  S
C1908      C1913   1.476       .  S
C1908      C1909   1.405       .  A
C1909      C1910   1.403       .  A
C1909      N1914   1.438       .  S
C1910      H1915   1.083       .  S
N1911      H1931   1.046       .  S
N1911      H1932   1.046       .  S
C1913      C1916   1.400       .  A
C1913      C1920   1.405       .  A
N1914      H1929   1.046       .  S
N1914      H1930   1.045       .  S
C1916      C1917   1.407       .  A
C1916      H1921   1.084       .  S
C1917      C1918   1.416       .  A
C1917      N1922   1.438       .  S
C1918      C1919   1.407       .  A
C1919      C1920   1.403       .  A
C1919      H1923   1.084       .  S
C1920      N1924   1.438       .  S
N1922      H1925   1.046       .  S
N1922      H1926   1.045       .  S
N1924      H1927   1.046       .  S
N1924      H1928   1.045       .  S
C1933      C1934   1.417       .  A
C1933      C1938   1.405       .  A
C1934      C1935   1.407       .  A
C1934      N1939   1.438       .  S
C1935      C1936   1.400       .  A
C1935      H1940   1.084       .  S
C1936      C1941   1.475       .  S
C1936      C1937   1.405       .  A
C1937      C1938   1.401       .  A
C1937      N1942   1.438       .  S
C1938      H1943   1.084       .  S
N1939      H1959   1.045       .  S
N1939      H1960   1.046       .  S
C1941      C1944   1.399       .  A
C1941      C1948   1.405       .  A
N1942      H1957   1.046       .  S
N1942      H1958   1.045       .  S
C1944      C1945   1.405       .  A
C1944      H1949   1.084       .  S
C1945      C1946   1.418       .  A
C1945      N1950   1.438       .  S
C1946      C1947   1.409       .  A
C1947      C1948   1.403       .  A
C1947      H1951   1.083       .  S
C1948      N1952   1.438       .  S
N1950      H1953   1.046       .  S
N1950      H1954   1.045       .  S
N1952      H1955   1.046       .  S
N1952      H1956   1.045       .  S
C1961      C1962   1.420       .  A
C1961      C1966   1.407       .  A
C1962      C1963   1.407       .  A
C1962      N1967   1.438       .  S
C1963      C1964   1.401       .  A
C1963      H1968   1.084       .  S
C1964      C1969   1.480       .  S
C1964      C1965   1.407       .  A
C1965      C1966   1.401       .  A
C1965      N1970   1.438       .  S
C1966      H1971   1.083       .  S
N1967      H1987   1.045       .  S
N1967      H1988   1.046       .  S
C1969      C1972   1.402       .  A
C1969      C1976   1.408       .  A
N1970      H1985   1.046       .  S
N1970      H1986   1.045       .  S
C1972      C1973   1.403       .  A
C1972      H1977   1.084       .  S
C1973      C1974   1.412       .  A
C1973      N1978   1.438       .  S
C1974      C1975   1.406       .  A
C1975      C1976   1.405       .  A
C1975      H1979   1.084       .  S
C1976      N1980   1.438       .  S
N1978      H1981   1.046       .  S
N1978      H1982   1.046       .  S
N1980      H1983   1.046       .  S
N1980      H1984   1.045       .  S
C1989      C1990   1.413       .  A
C1989      C1994   1.403       .  A
C1990      C1991   1.406       .  A
C1990      N1995   1.438       .  S
C1991      C1992   1.404       .  A
C1991      H1996   1.084       .  S
C1992      C1997   1.487       .  S
C1992      C1993   1.412       .  A
C1993      C1994   1.404       .  A
C1993      N1998   1.438       .  S
C1994      H1999   1.084       .  S
N1995      H2015   1.046       .  S
N1995      H2016   1.045       .  S
C1997      C2000   1.403       .  A
C1997      C2004   1.411       .  A
N1998      H2013   1.046       .  S
N1998      H2014   1.045       .  S
C2000      C2001   1.405       .  A
C2000      H2005   1.084       .  S
C2001      C2002   1.415       .  A
C2001      N2006   1.438       .  S
C2002      C2003   1.405       .  A
C2003      C2004   1.406       .  A
C2003      H2007   1.083       .  S
C2004      N2008   1.438       .  S
N2006      H2009   1.046       .  S
N2006      H2010   1.045       .  S
N2008      H2011   1.046       .  S
N2008      H2012   1.045       .  S
C2017      C2018   1.418       .  A
C2017      C2022   1.408       .  A
C2018      C2019   1.404       .  A
C2018      N2023   1.438       .  S
C2019      C2020   1.398       .  A
C2019      H2024   1.084       .  S
C2020      C2025   1.471       .  S
C2020      C2021   1.404       .  A
C2021      C2022   1.402       .  A
C2021      N2026   1.438       .  S
C2022      H2027   1.083       .  S
N2023      H2043   1.045       .  S
N2023      H2044   1.046       .  S
C2025      C2028   1.398       .  A
C2025      C2032   1.406       .  A
N2026      H2041   1.046       .  S
N2026      H2042   1.045       .  S
C2028      C2029   1.401       .  A
C2028      H2033   1.084       .  S
C2029      C2030   1.415       .  A
C2029      N2034   1.438       .  S
C2030      C2031   1.406       .  A
C2031      C2032   1.404       .  A
C2031      H2035   1.084       .  S
C2032      N2036   1.438       .  S
N2034      H2037   1.045       .  S
N2034      H2038   1.046       .  S
N2036      H2039   1.046       .  S
N2036      H2040   1.045       .  S
C2045      C2046   1.418       .  A
C2045      C2050   1.408       .  A
C2046      C2047   1.405       .  A
C2046      N2051   1.438       .  S
C2047      C2048   1.402       .  A
C2047      H2052   1.084       .  S
C2048      C2053   1.486       .  S
C2048      C2049   1.409       .  A
C2049      C2050   1.404       .  A
C2049      N2054   1.438       .  S
C2050      H2055   1.083       .  S
N2051      H2071   1.046       .  S
N2051      H2072   1.046       .  S
C2053      C2056   1.404       .  A
C2053      C2060   1.411       .  A
N2054      H2069   1.045       .  S
N2054      H2070   1.046       .  S
C2056      C2057   1.406       .  A
C2056      H2061   1.084       .  S
C2057      C2058   1.413       .  A
C2057      N2062   1.438       .  S
C2058      C2059   1.404       .  A
C2059      C2060   1.404       .  A
C2059      H2063   1.084       .  S
C2060      N2064   1.438       .  S
N2062      H2065   1.046       .  S
N2062      H2066   1.046       .  S
N2064      H2067   1.045       .  S
N2064      H2068   1.046       .  S
C2073      C2074   1.416       .  A
C2073      C2078   1.406       .  A
C2074      C2075   1.405       .  A
C2074      N2079   1.438       .  S
C2075      C2076   1.402       .  A
C2075      H2080   1.084       .  S
C2076      C2081   1.487       .  S
C2076      C2077   1.411       .  A
C2077      C2078   1.406       .  A
C2077      N2082   1.438       .  S
C2078      H2083   1.084       .  S
N2079      H2099   1.045       .  S
N2079      H2100   1.046       .  S
C2081      C2084   1.403       .  A
C2081      C2088   1.410       .  A
N2082      H2097   1.046       .  S
N2082      H2098   1.045       .  S
C2084      C2085   1.407       .  A
C2084      H2089   1.084       .  S
C2085      C2086   1.417       .  A
C2085      N2090   1.438       .  S
C2086      C2087   1.405       .  A
C2087      C2088   1.403       .  A
C2087      H2091   1.083       .  S
C2088      N2092   1.438       .  S
N2090      H2093   1.045       .  S
N2090      H2094   1.045       .  S
N2092      H2095   1.046       .  S
N2092      H2096   1.045       .  S
C2101      C2102   1.419       .  A
C2101      C2106   1.407       .  A
C2102      C2103   1.403       .  A
C2102      N2107   1.438       .  S
C2103      C2104   1.397       .  A
C2103      H2108   1.084       .  S
C2104      C2109   1.470       .  S
C2104      C2105   1.404       .  A
C2105      C2106   1.401       .  A
C2105      N2110   1.438       .  S
C2106      H2111   1.083       .  S
N2107      H2127   1.045       .  S
N2107      H2128   1.046       .  S
C2109      C2112   1.397       .  A
C2109      C2116   1.404       .  A
N2110      H2125   1.046       .  S
N2110      H2126   1.045       .  S
C2112      C2113   1.403       .  A
C2112      H2117   1.084       .  S
C2113      C2114   1.419       .  A
C2113      N2118   1.438       .  S
C2114      C2115   1.409       .  A
C2115      C2116   1.402       .  A
C2115      H2119   1.083       .  S
C2116      N2120   1.438       .  S
N2118      H2121   1.045       .  S
N2118      H2122   1.046       .  S
N2120      H2123   1.046       .  S
N2120      H2124   1.045       .  S
C2129      C2130   1.414       .  A
C2129      C2134   1.405       .  A
C2130      C2131   1.403       .  A
C2130      N2135   1.438       .  S
C2131      C2132   1.401       .  A
C2131      H2136   1.084       .  S
C2132      C2137   1.482       .  S
C2132      C2133   1.410       .  A
C2133      C2134   1.404       .  A
C2133      N2138   1.438       .  S
C2134      H2139   1.084       .  S
N2135      H2155   1.046       .  S
N2135      H2156   1.045       .  S
C2137      C2140   1.401       .  A
C2137      C2144   1.410       .  A
N2138      H2153   1.046       .  S
N2138      H2154   1.045       .  S
C2140      C2141   1.404       .  A
C2140      H2145   1.084       .  S
C2141      C2142   1.414       .  A
C2141      N2146   1.438       .  S
C2142      C2143   1.405       .  A
C2143      C2144   1.404       .  A
C2143      H2147   1.084       .  S
C2144      N2148   1.438       .  S
N2146      H2149   1.045       .  S
N2146      H2150   1.046       .  S
N2148      H2151   1.046       .  S
N2148      H2152   1.046       .  S
C2157      C2158   1.415       .  A
C2157      C2162   1.405       .  A
C2158      C2159   1.404       .  A
C2158      N2163   1.438       .  S
C2159      C2160   1.400       .  A
C2159      H2164   1.084       .  S
C2160      C2165   1.478       .  S
C2160      C2161   1.408       .  A
C2161      C2162   1.403       .  A
C2161      N2166   1.438       .  S
C2162      H2167   1.084       .  S
N2163      H2183   1.046       .  S
N2163      H2184   1.046       .  S
C2165      C2168   1.401       .  A
C2165      C2172   1.408       .  A
N2166      H2181   1.046       .  S
N2166      H2182   1.046       .  S
C2168      C2169   1.404       .  A
C2168      H2173   1.084       .  S
C2169      C2170   1.414       .  A
C2169      N2174   1.438       .  S
C2170      C2171   1.405       .  A
C2171      C2172   1.404       .  A
C2171      H2175   1.084       .  S
C2172      N2176   1.438       .  S
N2174      H2177   1.045       .  S
N2174      H2178   1.045       .  S
N2176      H2179   1.046       .  S
N2176      H2180   1.046       .  S
C2185      C2186   1.418       .  A
C2185      C2190   1.408       .  A
C2186      C2187   1.403       .  A
C2186      N2191   1.438       .  S
C2187      C2188   1.399       .  A
C2187      H2192   1.084       .  S
C2188      C2193   1.475       .  S
C2188      C2189   1.406       .  A
C2189      C2190   1.402       .  A
C2189      N2194   1.438       .  S
C2190      H2195   1.083       .  S
N2191      H2211   1.045       .  S
N2191      H2212   1.046       .  S
C2193      C2196   1.399       .  A
C2193      C2200   1.407       .  A
N2194      H2209   1.046       .  S
N2194      H2210   1.045       .  S
C2196      C2197   1.404       .  A
C2196      H2201   1.084       .  S
C2197      C2198   1.418       .  A
C2197      N2202   1.438       .  S
C2198      C2199   1.406       .  A
C2199      C2200   1.402       .  A
C2199      H2203   1.083       .  S
C2200      N2204   1.438       .  S
N2202      H2205   1.045       .  S
N2202      H2206   1.046       .  S
N2204      H2207   1.046       .  S
N2204      H2208   1.046       .  S
C2213      C2214   1.415       .  A
C2213      C2218   1.405       .  A
C2214      C2215   1.405       .  A
C2214      N2219   1.438       .  S
C2215      C2216   1.401       .  A
C2215      H2220   1.084       .  S
C2216      C2221   1.482       .  S
C2216      C2217   1.410       .  A
C2217      C2218   1.405       .  A
C2217      N2222   1.438       .  S
C2218      H2223   1.084       .  S
N2219      H2239   1.045       .  S
N2219      H2240   1.046       .  S
C2221      C2224   1.399       .  A
C2221      C2228   1.408       .  A
N2222      H2237   1.046       .  S
N2222      H2238   1.045       .  S
C2224      C2225   1.404       .  A
C2224      H2229   1.084       .  S
C2225      C2226   1.418       .  A
C2225      N2230   1.438       .  S
C2226      C2227   1.408       .  A
C2227      C2228   1.406       .  A
C2227      H2231   1.083       .  S
C2228      N2232   1.438       .  S
N2230      H2233   1.046       .  S
N2230      H2234   1.046       .  S
N2232      H2235   1.046       .  S
N2232      H2236   1.045       .  S
C2241      C2242   1.418       .  A
C2241      C2246   1.408       .  A
C2242      C2243   1.403       .  A
C2242      N2247   1.438       .  S
C2243      C2244   1.397       .  A
C2243      H2248   1.084       .  S
C2244      C2249   1.472       .  S
C2244      C2245   1.405       .  A
C2245      C2246   1.404       .  A
C2245      N2250   1.438       .  S
C2246      H2251   1.083       .  S
N2247      H2267   1.045       .  S
N2247      H2268   1.046       .  S
C2249      C2252   1.397       .  A
C2249      C2256   1.405       .  A
N2250      H2265   1.046       .  S
N2250      H2266   1.045       .  S
C2252      C2253   1.403       .  A
C2252      H2257   1.084       .  S
C2253      C2254   1.419       .  A
C2253      N2258   1.438       .  S
C2254      C2255   1.408       .  A
C2255      C2256   1.404       .  A
C2255      H2259   1.083       .  S
C2256      N2260   1.438       .  S
N2258      H2261   1.046       .  S
N2258      H2262   1.045       .  S
N2260      H2263   1.046       .  S
N2260      H2264   1.045       .  S
C2269      C2270   1.412       .  A
C2269      C2274   1.402       .  A
C2270      C2271   1.404       .  A
C2270      N2275   1.438       .  S
C2271      C2272   1.403       .  A
C2271      H2276   1.084       .  S
C2272      C2277   1.480       .  S
C2272      C2273   1.410       .  A
C2273      C2274   1.402       .  A
C2273      N2278   1.438       .  S
C2274      H2279   1.084       .  S
N2275      H2295   1.046       .  S
N2275      H2296   1.045       .  S
C2277      C2280   1.402       .  A
C2277      C2284   1.409       .  A
N2278      H2293   1.046       .  S
N2278      H2294   1.045       .  S
C2280      C2281   1.404       .  A
C2280      H2285   1.084       .  S
C2281      C2282   1.415       .  A
C2281      N2286   1.438       .  S
C2282      C2283   1.406       .  A
C2283      C2284   1.403       .  A
C2283      H2287   1.083       .  S
C2284      N2288   1.438       .  S
N2286      H2289   1.046       .  S
N2286      H2290   1.046       .  S
N2288      H2291   1.046       .  S
N2288      H2292   1.045       .  S
C2297      C2298   1.413       .  A
C2297      C2302   1.403       .  A
C2298      C2299   1.404       .  A
C2298      N2303   1.438       .  S
C2299      C2300   1.401       .  A
C2299      H2304   1.084       .  S
C2300      C2305   1.481       .  S
C2300      C2301   1.410       .  A
C2301      C2302   1.405       .  A
C2301      N2306   1.438       .  S
C2302      H2307   1.084       .  S
N2303      H2323   1.047       .  S
N2303      H2324   1.045       .  S
C2305      C2308   1.400       .  A
C2305      C2312   1.407       .  A
N2306      H2321   1.045       .  S
N2306      H2322   1.046       .  S
C2308      C2309   1.403       .  A
C2308      H2313   1.084       .  S
C2309      C2310   1.417       .  A
C2309      N2314   1.438       .  S
C2310      C2311   1.410       .  A
C2311      C2312   1.405       .  A
C2311      H2315   1.083       .  S
C2312      N2316   1.438       .  S
N2314      H2317   1.046       .  S
N2314      H2318   1.045       .  S
N2316      H2319   1.046       .  S
N2316      H2320   1.046       .  S
C2325      C2326   1.419       .  A
C2325      C2330   1.408       .  A
C2326      C2327   1.404       .  A
C2326      N2331   1.438       .  S
C2327      C2328   1.399       .  A
C2327      H2332   1.084       .  S
C2328      C2333   1.480       .  S
C2328      C2329   1.407       .  A
C2329      C2330   1.405       .  A
C2329      N2334   1.438       .  S
C2330      H2335   1.083       .  S
N2331      H2351   1.045       .  S
N2331      H2352   1.046       .  S
C2333      C2336   1.403       .  A
C2333      C2340   1.408       .  A
N2334      H2349   1.046       .  S
N2334      H2350   1.046       .  S
C2336      C2337   1.407       .  A
C2336      H2341   1.084       .  S
C2337      C2338   1.412       .  A
C2337      N2342   1.438       .  S
C2338      C2339   1.405       .  A
C2339      C2340   1.402       .  A
C2339      H2343   1.084       .  S
C2340      N2344   1.438       .  S
N2342      H2345   1.045       .  S
N2342      H2346   1.046       .  S
N2344      H2347   1.046       .  S
N2344      H2348   1.046       .  S
C2353      C2354   1.415       .  A
C2353      C2358   1.407       .  A
C2354      C2355   1.404       .  A
C2354      N2359   1.438       .  S
C2355      C2356   1.402       .  A
C2355      H2360   1.084       .  S
C2356      C2361   1.484       .  S
C2356      C2357   1.410       .  A
C2357      C2358   1.405       .  A
C2357      N2362   1.438       .  S
C2358      H2363   1.083       .  S
N2359      H2379   1.046       .  S
N2359      H2380   1.045       .  S
C2361      C2364   1.403       .  A
C2361      C2368   1.411       .  A
N2362      H2377   1.046       .  S
N2362      H2378   1.045       .  S
C2364      C2365   1.404       .  A
C2364      H2369   1.084       .  S
C2365      C2366   1.412       .  A
C2365      N2370   1.438       .  S
C2366      C2367   1.404       .  A
C2367      C2368   1.404       .  A
C2367      H2371   1.084       .  S
C2368      N2372   1.438       .  S
N2370      H2373   1.046       .  S
N2370      H2374   1.046       .  S
N2372      H2375   1.046       .  S
N2372      H2376   1.046       .  S
C2381      C2382   1.418       .  A
C2381      C2386   1.407       .  A
C2382      C2383   1.407       .  A
C2382      N2387   1.438       .  S
C2383      C2384   1.400       .  A
C2383      H2388   1.084       .  S
C2384      C2389   1.480       .  S
C2384      C2385   1.407       .  A
C2385      C2386   1.406       .  A
C2385      N2390   1.438       .  S
C2386      H2391   1.083       .  S
N2387      H2407   1.045       .  S
N2387      H2408   1.046       .  S
C2389      C2392   1.400       .  A
C2389      C2396   1.407       .  A
N2390      H2405   1.046       .  S
N2390      H2406   1.045       .  S
C2392      C2393   1.406       .  A
C2392      H2397   1.084       .  S
C2393      C2394   1.417       .  A
C2393      N2398   1.438       .  S
C2394      C2395   1.407       .  A
C2395      C2396   1.407       .  A
C2395      H2399   1.083       .  S
C2396      N2400   1.437       .  S
N2398      H2401   1.046       .  S
N2398      H2402   1.046       .  S
N2400      H2403   1.046       .  S
N2400      H2404   1.045       .  S
C2409      C2410   1.415       .  A
C2409      C2414   1.407       .  A
C2410      C2411   1.403       .  A
C2410      N2415   1.438       .  S
C2411      C2412   1.401       .  A
C2411      H2416   1.084       .  S
C2412      C2417   1.480       .  S
C2412      C2413   1.408       .  A
C2413      C2414   1.404       .  A
C2413      N2418   1.438       .  S
C2414      H2419   1.084       .  S
N2415      H2435   1.045       .  S
N2415      H2436   1.046       .  S
C2417      C2420   1.403       .  A
C2417      C2424   1.408       .  A
N2418      H2433   1.046       .  S
N2418      H2434   1.046       .  S
C2420      C2421   1.406       .  A
C2420      H2425   1.084       .  S
C2421      C2422   1.413       .  A
C2421      N2426   1.438       .  S
C2422      C2423   1.404       .  A
C2423      C2424   1.402       .  A
C2423      H2427   1.084       .  S
C2424      N2428   1.438       .  S
N2426      H2429   1.046       .  S
N2426      H2430   1.045       .  S
N2428      H2431   1.046       .  S
N2428      H2432   1.046       .  S
C2437      C2438   1.414       .  A
C2437      C2442   1.406       .  A
C2438      C2439   1.405       .  A
C2438      N2443   1.438       .  S
C2439      C2440   1.399       .  A
C2439      H2444   1.084       .  S
C2440      C2445   1.476       .  S
C2440      C2441   1.409       .  A
C2441      C2442   1.405       .  A
C2441      N2446   1.439       .  S
C2442      H2447   1.084       .  S
N2443      H2463   1.046       .  S
N2443      H2464   1.045       .  S
C2445      C2448   1.401       .  A
C2445      C2452   1.409       .  A
N2446      H2461   1.046       .  S
N2446      H2462   1.044       .  S
C2448      C2449   1.405       .  A
C2448      H2453   1.084       .  S
C2449      C2450   1.410       .  A
C2449      N2454   1.438       .  S
C2450      C2451   1.403       .  A
C2451      C2452   1.405       .  A
C2451      H2455   1.084       .  S
C2452      N2456   1.438       .  S
N2454      H2457   1.046       .  S
N2454      H2458   1.046       .  S
N2456      H2459   1.046       .  S
N2456      H2460   1.043       .  S
C2465      C2466   1.420       .  A
C2465      C2470   1.409       .  A
C2466      C2467   1.405       .  A
C2466      N2471   1.438       .  S
C2467      C2468   1.398       .  A
C2467      H2472   1.084       .  S
C2468      C2473   1.475       .  S
C2468      C2469   1.405       .  A
C2469      C2470   1.404       .  A
C2469      N2474   1.438       .  S
C2470      H2475   1.083       .  S
N2471      H2491   1.045       .  S
N2471      H2492   1.046       .  S
C2473      C2476   1.399       .  A
C2473      C2480   1.406       .  A
N2474      H2489   1.045       .  S
N2474      H2490   1.046       .  S
C2476      C2477   1.405       .  A
C2476      H2481   1.084       .  S
C2477      C2478   1.418       .  A
C2477      N2482   1.438       .  S
C2478      C2479   1.406       .  A
C2479      C2480   1.403       .  A
C2479      H2483   1.084       .  S
C2480      N2484   1.438       .  S
N2482      H2485   1.046       .  S
N2482      H2486   1.045       .  S
N2484      H2487   1.045       .  S
N2484      H2488   1.046       .  S
C2493      C2494   1.417       .  A
C2493      C2498   1.408       .  A
C2494      C2495   1.407       .  A
C2494      N2499   1.438       .  S
C2495      C2496   1.402       .  A
C2495      H2500   1.084       .  S
C2496      C2501   1.483       .  S
C2496      C2497   1.407       .  A
C2497      C2498   1.405       .  A
C2497      N2502   1.438       .  S
C2498      H2503   1.083       .  S
N2499      H2519   1.045       .  S
N2499      H2520   1.046       .  S
C2501      C2504   1.403       .  A
C2501      C2508   1.409       .  A
N2502      H2517   1.045       .  S
N2502      H2518   1.046       .  S
C2504      C2505   1.408       .  A
C2504      H2509   1.084       .  S
C2505      C2506   1.412       .  A
C2505      N2510   1.438       .  S
C2506      C2507   1.404       .  A
C2507      C2508   1.405       .  A
C2507      H2511   1.084       .  S
C2508      N2512   1.438       .  S
N2510      H2513   1.046       .  S
N2510      H2514   1.046       .  S
N2512      H2515   1.045       .  S
N2512      H2516   1.046       .  S
C2521      C2522   1.413       .  A
C2521      C2526   1.406       .  A
C2522      C2523   1.404       .  A
C2522      N2527   1.438       .  S
C2523      C2524   1.402       .  A
C2523      H2528   1.084       .  S
C2524      C2529   1.483       .  S
C2524      C2525   1.410       .  A
C2525      C2526   1.406       .  A
C2525      N2530   1.438       .  S
C2526      H2531   1.084       .  S
N2527      H2547   1.046       .  S
N2527      H2548   1.045       .  S
C2529      C2532   1.401       .  A
C2529      C2536   1.408       .  A
N2530      H2545   1.046       .  S
N2530      H2546   1.046       .  S
C2532      C2533   1.407       .  A
C2532      H2537   1.084       .  S
C2533      C2534   1.419       .  A
C2533      N2538   1.438       .  S
C2534      C2535   1.407       .  A
C2535      C2536   1.403       .  A
C2535      H2539   1.083       .  S
C2536      N2540   1.438       .  S
N2538      H2541   1.046       .  S
N2538      H2542   1.046       .  S
N2540      H2543   1.046       .  S
N2540      H2544   1.045       .  S
C2549      C2550   1.411       .  A
C2549      C2554   1.403       .  A
C2550      C2551   1.405       .  A
C2550      N2555   1.438       .  S
C2551      C2552   1.401       .  A
C2551      H2556   1.084       .  S
C2552      C2557   1.478       .  S
C2552      C2553   1.409       .  A
C2553      C2554   1.407       .  A
C2553      N2558   1.438       .  S
C2554      H2559   1.084       .  S
N2555      H2575   1.045       .  S
N2555      H2576   1.046       .  S
C2557      C2560   1.399       .  A
C2557      C2564   1.408       .  A
N2558      H2573   1.045       .  S
N2558      H2574   1.045       .  S
C2560      C2561   1.405       .  A
C2560      H2565   1.084       .  S
C2561      C2562   1.417       .  A
C2561      N2566   1.438       .  S
C2562      C2563   1.407       .  A
C2563      C2564   1.407       .  A
C2563      H2567   1.083       .  S
C2564      N2568   1.438       .  S
N2566      H2569   1.046       .  S
N2566      H2570   1.046       .  S
N2568      H2571   1.046       .  S
N2568      H2572   1.045       .  S
C2577      C2578   1.419       .  A
C2577      C2582   1.406       .  A
C2578      C2579   1.405       .  A
C2578      N2583   1.438       .  S
C2579      C2580   1.399       .  A
C2579      H2584   1.084       .  S
C2580      C2585   1.475       .  S
C2580      C2581   1.405       .  A
C2581      C2582   1.402       .  A
C2581      N2586   1.438       .  S
C2582      H2587   1.083       .  S
N2583      H2603   1.045       .  S
N2583      H2604   1.046       .  S
C2585      C2588   1.399       .  A
C2585      C2592   1.407       .  A
N2586      H2601   1.046       .  S
N2586      H2602   1.045       .  S
C2588      C2589   1.404       .  A
C2588      H2593   1.084       .  S
C2589      C2590   1.415       .  A
C2589      N2594   1.438       .  S
C2590      C2591   1.406       .  A
C2591      C2592   1.404       .  A
C2591      H2595   1.084       .  S
C2592      N2596   1.438       .  S
N2594      H2597   1.046       .  S
N2594      H2598   1.046       .  S
N2596      H2599   1.046       .  S
N2596      H2600   1.045       .  S
C2605      C2606   1.415       .  A
C2605      C2610   1.405       .  A
C2606      C2607   1.407       .  A
C2606      N2611   1.438       .  S
C2607      C2608   1.402       .  A
C2607      H2612   1.084       .  S
C2608      C2613   1.480       .  S
C2608      C2609   1.407       .  A
C2609      C2610   1.404       .  A
C2609      N2614   1.438       .  S
C2610      H2615   1.084       .  S
N2611      H2631   1.046       .  S
N2611      H2632   1.046       .  S
C2613      C2616   1.403       .  A
C2613      C2620   1.409       .  A
N2614      H2629   1.045       .  S
N2614      H2630   1.046       .  S
C2616      C2617   1.406       .  A
C2616      H2621   1.084       .  S
C2617      C2618   1.411       .  A
C2617      N2622   1.438       .  S
C2618      C2619   1.402       .  A
C2619      C2620   1.405       .  A
C2619      H2623   1.084       .  S
C2620      N2624   1.438       .  S
N2622      H2625   1.046       .  S
N2622      H2626   1.046       .  S
N2624      H2627   1.045       .  S
N2624      H2628   1.046       .  S
C2633      C2634   1.411       .  A
C2633      C2638   1.403       .  A
C2634      C2635   1.406       .  A
C2634      N2639   1.438       .  S
C2635      C2636   1.402       .  A
C2635      H2640   1.084       .  S
C2636      C2641   1.476       .  S
C2636      C2637   1.407       .  A
C2637      C2638   1.403       .  A
C2637      N2642   1.437       .  S
C2638      H2643   1.084       .  S
N2639      H2659   1.046       .  S
N2639      H2660   1.046       .  S
C2641      C2644   1.402       .  A
C2641      C2648   1.408       .  A
N2642      H2657   1.045       .  S
N2642      H2658   1.046       .  S
C2644      C2645   1.405       .  A
C2644      H2649   1.084       .  S
C2645      C2646   1.410       .  A
C2645      N2650   1.438       .  S
C2646      C2647   1.402       .  A
C2647      C2648   1.405       .  A
C2647      H2651   1.084       .  S
C2648      N2652   1.437       .  S
N2650      H2653   1.046       .  S
N2650      H2654   1.046       .  S
N2652      H2655   1.046       .  S
N2652      H2656   1.046       .  S
C2661      C2662   1.419       .  A
C2661      C2666   1.407       .  A
C2662      C2663   1.405       .  A
C2662      N2667   1.438       .  S
C2663      C2664   1.401       .  A
C2663      H2668   1.084       .  S
C2664      C2669   1.481       .  S
C2664      C2665   1.408       .  A
C2665      C2666   1.402       .  A
C2665      N2670   1.438       .  S
C2666      H2671   1.083       .  S
N2667      H2687   1.045       .  S
N2667      H2688   1.046       .  S
C2669      C2672   1.402       .  A
C2669      C2676   1.408       .  A
N2670      H2685   1.046       .  S
N2670      H2686   1.045       .  S
C2672      C2673   1.404       .  A
C2672      H2677   1.084       .  S
C2673      C2674   1.415       .  A
C2673      N2678   1.438       .  S
C2674      C2675   1.407       .  A
C2675      C2676   1.403       .  A
C2675      H2679   1.083       .  S
C2676      N2680   1.438       .  S
N2678      H2681   1.045       .  S
N2678      H2682   1.046       .  S
N2680      H2683   1.046       .  S
N2680      H2684   1.045       .  S
C2689      C2690   1.415       .  A
C2689      C2694   1.403       .  A
C2690      C2691   1.407       .  A
C2690      N2695   1.438       .  S
C2691      C2692   1.403       .  A
C2691      H2696   1.084       .  S
C2692      C2697   1.484       .  S
C2692      C2693   1.409       .  A
C2693      C2694   1.403       .  A
C2693      N2698   1.438       .  S
C2694      H2699   1.084       .  S
N2695      H2715   1.045       .  S
N2695      H2716   1.046       .  S
C2697      C2700   1.403       .  A
C2697      C2704   1.409       .  A
N2698      H2713   1.046       .  S
N2698      H2714   1.046       .  S
C2700      C2701   1.405       .  A
C2700      H2705   1.084       .  S
C2701      C2702   1.415       .  A
C2701      N2706   1.438       .  S
C2702      C2703   1.406       .  A
C2703      C2704   1.403       .  A
C2703      H2707   1.083       .  S
C2704      N2708   1.438       .  S
N2706      H2709   1.045       .  S
N2706      H2710   1.046       .  S
N2708      H2711   1.046       .  S
N2708      H2712   1.045       .  S
C2717      C2718   1.413       .  A
C2717      C2722   1.404       .  A
C2718      C2719   1.406       .  A
C2718      N2723   1.438       .  S
C2719      C2720   1.404       .  A
C2719      H2724   1.084       .  S
C2720      C2725   1.482       .  S
C2720      C2721   1.409       .  A
C2721      C2722   1.401       .  A
C2721      N2726   1.438       .  S
C2722      H2727   1.084       .  S
N2723      H2743   1.046       .  S
N2723      H2744   1.046       .  S
C2725      C2728   1.403       .  A
C2725      C2732   1.409       .  A
N2726      H2741   1.046       .  S
N2726      H2742   1.045       .  S
C2728      C2729   1.405       .  A
C2728      H2733   1.084       .  S
C2729      C2730   1.413       .  A
C2729      N2734   1.438       .  S
C2730      C2731   1.405       .  A
C2731      C2732   1.403       .  A
C2731      H2735   1.084       .  S
C2732      N2736   1.438       .  S
N2734      H2737   1.047       .  S
N2734      H2738   1.045       .  S
N2736      H2739   1.046       .  S
N2736      H2740   1.045       .  S
C2745      C2746   1.417       .  A
C2745      C2750   1.408       .  A
C2746      C2747   1.403       .  A
C2746      N2751   1.438       .  S
C2747      C2748   1.399       .  A
C2747      H2752   1.084       .  S
C2748      C2753   1.475       .  S
C2748      C2749   1.406       .  A
C2749      C2750   1.403       .  A
C2749      N2754   1.438       .  S
C2750      H2755   1.083       .  S
N2751      H2771   1.046       .  S
N2751      H2772   1.046       .  S
C2753      C2756   1.398       .  A
C2753      C2760   1.407       .  A
N2754      H2769   1.045       .  S
N2754      H2770   1.046       .  S
C2756      C2757   1.403       .  A
C2756      H2761   1.084       .  S
C2757      C2758   1.418       .  A
C2757      N2762   1.438       .  S
C2758      C2759   1.406       .  A
C2759      C2760   1.404       .  A
C2759      H2763   1.083       .  S
C2760      N2764   1.438       .  S
N2762      H2765   1.046       .  S
N2762      H2766   1.045       .  S
N2764      H2767   1.045       .  S
N2764      H2768   1.046       .  S
C2773      C2774   1.418       .  A
C2773      C2778   1.409       .  A
C2774      C2775   1.406       .  A
C2774      N2779   1.438       .  S
C2775      C2776   1.399       .  A
C2775      H2780   1.084       .  S
C2776      C2781   1.476       .  S
C2776      C2777   1.406       .  A
C2777      C2778   1.405       .  A
C2777      N2782   1.438       .  S
C2778      H2783   1.083       .  S
N2779      H2799   1.045       .  S
N2779      H2800   1.046       .  S
C2781      C2784   1.399       .  A
C2781      C2788   1.406       .  A
N2782      H2797   1.046       .  S
N2782      H2798   1.045       .  S
C2784      C2785   1.405       .  A
C2784      H2789   1.084       .  S
C2785      C2786   1.418       .  A
C2785      N2790   1.438       .  S
C2786      C2787   1.406       .  A
C2787      C2788   1.404       .  A
C2787      H2791   1.083       .  S
C2788      N2792   1.438       .  S
N2790      H2793   1.045       .  S
N2790      H2794   1.046       .  S
N2792      H2795   1.046       .  S
N2792      H2796   1.045       .  S
C2801      C2802   1.412       .  A
C2801      C2806   1.404       .  A
C2802      C2803   1.404       .  A
C2802      N2807   1.438       .  S
C2803      C2804   1.400       .  A
C2803      H2808   1.084       .  S
C2804      C2809   1.477       .  S
C2804      C2805   1.409       .  A
C2805      C2806   1.406       .  A
C2805      N2810   1.437       .  S
C2806      H2811   1.084       .  S
N2807      H2827   1.046       .  S
N2807      H2828   1.046       .  S
C2809      C2812   1.401       .  A
C2809      C2816   1.407       .  A
N2810      H2825   1.046       .  S
N2810      H2826   1.046       .  S
C2812      C2813   1.406       .  A
C2812      H2817   1.084       .  S
C2813      C2814   1.412       .  A
C2813      N2818   1.438       .  S
C2814      C2815   1.404       .  A
C2815      C2816   1.405       .  A
C2815      H2819   1.084       .  S
C2816      N2820   1.438       .  S
N2818      H2821   1.046       .  S
N2818      H2822   1.045       .  S
N2820      H2823   1.046       .  S
N2820      H2824   1.045       .  S
C2829      C2830   1.410       .  A
C2829      C2834   1.403       .  A
C2830      C2831   1.402       .  A
C2830      N2835   1.438       .  S
C2831      C2832   1.402       .  A
C2831      H2836   1.084       .  S
C2832      C2837   1.478       .  S
C2832      C2833   1.410       .  A
C2833      C2834   1.403       .  A
C2833      N2838   1.438       .  S
C2834      H2839   1.084       .  S
N2835      H2855   1.046       .  S
N2835      H2856   1.045       .  S
C2837      C2840   1.401       .  A
C2837      C2844   1.408       .  A
N2838      H2853   1.046       .  S
N2838      H2854   1.046       .  S
C2840      C2841   1.405       .  A
C2840      H2845   1.084       .  S
C2841      C2842   1.417       .  A
C2841      N2846   1.438       .  S
C2842      C2843   1.407       .  A
C2843      C2844   1.400       .  A
C2843      H2847   1.083       .  S
C2844      N2848   1.438       .  S
N2846      H2849   1.045       .  S
N2846      H2850   1.046       .  S
N2848      H2851   1.046       .  S
N2848      H2852   1.045       .  S
C2857      C2858   1.417       .  A
C2857      C2862   1.409       .  A
C2858      C2859   1.402       .  A
C2858      N2863   1.438       .  S
C2859      C2860   1.398       .  A
C2859      H2864   1.084       .  S
C2860      C2865   1.472       .  S
C2860      C2861   1.405       .  A
C2861      C2862   1.404       .  A
C2861      N2866   1.438       .  S
C2862      H2867   1.083       .  S
N2863      H2883   1.046       .  S
N2863      H2884   1.046       .  S
C2865      C2868   1.400       .  A
C2865      C2872   1.406       .  A
N2866      H2881   1.046       .  S
N2866      H2882   1.046       .  S
C2868      C2869   1.403       .  A
C2868      H2873   1.084       .  S
C2869      C2870   1.415       .  A
C2869      N2874   1.438       .  S
C2870      C2871   1.404       .  A
C2871      C2872   1.401       .  A
C2871      H2875   1.084       .  S
C2872      N2876   1.437       .  S
N2874      H2877   1.046       .  S
N2874      H2878   1.046       .  S
N2876      H2879   1.046       .  S
N2876      H2880   1.045       .  S
C2885      C2886   1.419       .  A
C2885      C2890   1.409       .  A
C2886      C2887   1.407       .  A
C2886      N2891   1.438       .  S
C2887      C2888   1.399       .  A
C2887      H2892   1.084       .  S
C2888      C2893   1.479       .  S
C2888      C2889   1.406       .  A
C2889      C2890   1.407       .  A
C2889      N2894   1.438       .  S
C2890      H2895   1.083       .  S
N2891      H2911   1.045       .  S
N2891      H2912   1.046       .  S
C2893      C2896   1.399       .  A
C2893      C2900   1.406       .  A
N2894      H2909   1.046       .  S
N2894      H2910   1.046       .  S
C2896      C2897   1.406       .  A
C2896      H2901   1.084       .  S
C2897      C2898   1.420       .  A
C2897      N2902   1.438       .  S
C2898      C2899   1.409       .  A
C2899      C2900   1.406       .  A
C2899      H2903   1.083       .  S
C2900      N2904   1.438       .  S
N2902      H2905   1.046       .  S
N2902      H2906   1.045       .  S
N2904      H2907   1.046       .  S
N2904      H2908   1.045       .  S
C2913      C2914   1.418       .  A
C2913      C2918   1.407       .  A
C2914      C2915   1.405       .  A
C2914      N2919   1.438       .  S
C2915      C2916   1.403       .  A
C2915      H2920   1.083       .  S
C2916      C2921   1.492       .  S
C2916      C2917   1.411       .  A
C2917      C2918   1.406       .  A
C2917      N2922   1.438       .  S
C2918      H2923   1.083       .  S
N2919      H2939   1.046       .  S
N2919      H2940   1.046       .  S
C2921      C2924   1.406       .  A
C2921      C2928   1.413       .  A
N2922      H2937   1.046       .  S
N2922      H2938   1.046       .  S
C2924      C2925   1.408       .  A
C2924      H2929   1.083       .  S
C2925      C2926   1.412       .  A
C2925      N2930   1.438       .  S
C2926      C2927   1.403       .  A
C2927      C2928   1.404       .  A
C2927      H2931   1.084       .  S
C2928      N2932   1.438       .  S
N2930      H2933   1.045       .  S
N2930      H2934   1.046       .  S
N2932      H2935   1.046       .  S
N2932      H2936   1.045       .  S
C2941      C2942   1.418       .  A
C2941      C2946   1.406       .  A
C2942      C2943   1.403       .  A
C2942      N2947   1.438       .  S
C2943      C2944   1.397       .  A
C2943      H2948   1.084       .  S
C2944      C2949   1.468       .  S
C2944      C2945   1.404       .  A
C2945      C2946   1.401       .  A
C2945      N2950   1.438       .  S
C2946      H2951   1.083       .  S
N2947      H2967   1.046       .  S
N2947      H2968   1.045       .  S
C2949      C2952   1.396       .  A
C2949      C2956   1.404       .  A
N2950      H2965   1.046       .  S
N2950      H2966   1.045       .  S
C2952      C2953   1.401       .  A
C2952      H2957   1.084       .  S
C2953      C2954   1.419       .  A
C2953      N2958   1.438       .  S
C2954      C2955   1.408       .  A
C2955      C2956   1.402       .  A
C2955      H2959   1.083       .  S
C2956      N2960   1.438       .  S
N2958      H2961   1.046       .  S
N2958      H2962   1.045       .  S
N2960      H2963   1.046       .  S
N2960      H2964   1.045       .  S
C2969      C2970   1.415       .  A
C2969      C2974   1.404       .  A
C2970      C2971   1.406       .  A
C2970      N2975   1.438       .  S
C2971      C2972   1.403       .  A
C2971      H2976   1.084       .  S
C2972      C2977   1.484       .  S
C2972      C2973   1.410       .  A
C2973      C2974   1.402       .  A
C2973      N2978   1.438       .  S
C2974      H2979   1.084       .  S
N2975      H2995   1.046       .  S
N2975      H2996   1.045       .  S
C2977      C2980   1.404       .  A
C2977      C2984   1.410       .  A
N2978      H2993   1.045       .  S
N2978      H2994   1.046       .  S
C2980      C2981   1.405       .  A
C2980      H2985   1.084       .  S
C2981      C2982   1.413       .  A
C2981      N2986   1.438       .  S
C2982      C2983   1.405       .  A
C2983      C2984   1.404       .  A
C2983      H2987   1.084       .  S
C2984      N2988   1.438       .  S
N2986      H2989   1.045       .  S
N2986      H2990   1.046       .  S
N2988      H2991   1.046       .  S
N2988      H2992   1.046       .  S
C2997      C2998   1.412       .  A
C2997      C3002   1.404       .  A
C2998      C2999   1.405       .  A
C2998      N3003   1.438       .  S
C2999      C3000   1.404       .  A
C2999      H3004   1.083       .  S
C3000      C3005   1.486       .  S
C3000      C3001   1.411       .  A
C3001      C3002   1.404       .  A
C3001      N3006   1.438       .  S
C3002      H3007   1.084       .  S
N3003      H3023   1.046       .  S
N3003      H3024   1.045       .  S
C3005      C3008   1.403       .  A
C3005      C3012   1.410       .  A
N3006      H3021   1.046       .  S
N3006      H3022   1.046       .  S
C3008      C3009   1.406       .  A
C3008      H3013   1.084       .  S
C3009      C3010   1.416       .  A
C3009      N3014   1.438       .  S
C3010      C3011   1.405       .  A
C3011      C3012   1.405       .  A
C3011      H3015   1.083       .  S
C3012      N3016   1.438       .  S
N3014      H3017   1.046       .  S
N3014      H3018   1.046       .  S
N3016      H3019   1.046       .  S
N3016      H3020   1.045       .  S
C3025      C3026   1.419       .  A
C3025      C3030   1.407       .  A
C3026      C3027   1.402       .  A
C3026      N3031   1.438       .  S
C3027      C3028   1.399       .  A
C3027      H3032   1.084       .  S
C3028      C3033   1.480       .  S
C3028      C3029   1.408       .  A
C3029      C3030   1.403       .  A
C3029      N3034   1.438       .  S
C3030      H3035   1.083       .  S
N3031      H3051   1.045       .  S
N3031      H3052   1.046       .  S
C3033      C3036   1.401       .  A
C3033      C3040   1.410       .  A
N3034      H3049   1.046       .  S
N3034      H3050   1.045       .  S
C3036      C3037   1.403       .  A
C3036      H3041   1.084       .  S
C3037      C3038   1.414       .  A
C3037      N3042   1.438       .  S
C3038      C3039   1.405       .  A
C3039      C3040   1.403       .  A
C3039      H3043   1.084       .  S
C3040      N3044   1.438       .  S
N3042      H3045   1.045       .  S
N3042      H3046   1.046       .  S
N3044      H3047   1.046       .  S
N3044      H3048   1.045       .  S
C3053      C3054   1.416       .  A
C3053      C3058   1.408       .  A
C3054      C3055   1.403       .  A
C3054      N3059   1.438       .  S
C3055      C3056   1.399       .  A
C3055      H3060   1.084       .  S
C3056      C3061   1.473       .  S
C3056      C3057   1.406       .  A
C3057      C3058   1.404       .  A
C3057      N3062   1.438       .  S
C3058      H3063   1.083       .  S
N3059      H3079   1.045       .  S
N3059      H3080   1.046       .  S
C3061      C3064   1.400       .  A
C3061      C3068   1.408       .  A
N3062      H3077   1.046       .  S
N3062      H3078   1.046       .  S
C3064      C3065   1.402       .  A
C3064      H3069   1.084       .  S
C3065      C3066   1.412       .  A
C3065      N3070   1.438       .  S
C3066      C3067   1.403       .  A
C3067      C3068   1.403       .  A
C3067      H3071   1.084       .  S
C3068      N3072   1.437       .  S
N3070      H3073   1.045       .  S
N3070      H3074   1.046       .  S
N3072      H3075   1.046       .  S
N3072      H3076   1.046       .  S
C3081      C3082   1.421       .  A
C3081      C3086   1.408       .  A
C3082      C3083   1.406       .  A
C3082      N3087   1.438       .  S
C3083      C3084   1.399       .  A
C3083      H3088   1.084       .  S
C3084      C3089   1.481       .  S
C3084      C3085   1.407       .  A
C3085      C3086   1.406       .  A
C3085      N3090   1.438       .  S
C3086      H3091   1.083       .  S
N3087      H3107   1.045       .  S
N3087      H3108   1.046       .  S
C3089      C3092   1.400       .  A
C3089      C3096   1.407       .  A
N3090      H3105   1.046       .  S
N3090      H3106   1.045       .  S
C3092      C3093   1.407       .  A
C3092      H3097   1.084       .  S
C3093      C3094   1.419       .  A
C3093      N3098   1.438       .  S
C3094      C3095   1.408       .  A
C3095      C3096   1.404       .  A
C3095      H3099   1.083       .  S
C3096      N3100   1.438       .  S
N3098      H3101   1.045       .  S
N3098      H3102   1.046       .  S
N3100      H3103   1.046       .  S
N3100      H3104   1.045       .  S
C3109      C3110   1.413       .  A
C3109      C3114   1.405       .  A
C3110      C3111   1.404       .  A
C3110      N3115   1.438       .  S
C3111      C3112   1.400       .  A
C3111      H3116   1.084       .  S
C3112      C3117   1.471       .  S
C3112      C3113   1.406       .  A
C3113      C3114   1.403       .  A
C3113      N3118   1.438       .  S
C3114      H3119   1.084       .  S
N3115      H3135   1.046       .  S
N3115      H3136   1.046       .  S
C3117      C3120   1.399       .  A
C3117      C3124   1.405       .  A
N3118      H3133   1.046       .  S
N3118      H3134   1.045       .  S
C3120      C3121   1.404       .  A
C3120      H3125   1.084       .  S
C3121      C3122   1.415       .  A
C3121      N3126   1.438       .  S
C3122      C3123   1.407       .  A
C3123      C3124   1.402       .  A
C3123      H3127   1.083       .  S
C3124      N3128   1.438       .  S
N3126      H3129   1.048       .  S
N3126      H3130   1.044       .  S
N3128      H3131   1.046       .  S
N3128      H3132   1.045       .  S
C3137      C3138   1.415       .  A
C3137      C3142   1.405       .  A
C3138      C3139   1.406       .  A
C3138      N3143   1.438       .  S
C3139      C3140   1.402       .  A
C3139      H3144   1.084       .  S
C3140      C3145   1.487   1_545  S
C3140      C3141   1.412       .  A
C3141      C3142   1.406       .  A
C3141      N3146   1.438       .  S
C3142      H3147   1.084       .  S
N3143      H3163   1.046       .  S
N3143      H3164   1.046       .  S
C3145      C3148   1.402       .  A
C3145      C3152   1.411       .  A
N3146      H3161   1.046       .  S
N3146      H3162   1.046       .  S
C3148      C3149   1.405       .  A
C3148      H3153   1.084       .  S
C3149      C3150   1.416       .  A
C3149      N3154   1.438       .  S
C3150      C3151   1.406       .  A
C3151      C3152   1.406       .  A
C3151      H3155   1.084       .  S
C3152      N3156   1.438       .  S
N3154      H3157   1.046       .  S
N3154      H3158   1.045       .  S
N3156      H3159   1.046       .  S
N3156      H3160   1.045       .  S
C3165      C3166   1.417       .  A
C3165      C3170   1.407       .  A
C3166      C3167   1.402       .  A
C3166      N3171   1.438       .  S
C3167      C3168   1.399       .  A
C3167      H3172   1.084       .  S
C3168      C3173   1.478       .  S
C3168      C3169   1.408       .  A
C3169      C3170   1.404       .  A
C3169      N3174   1.438       .  S
C3170      H3175   1.083       .  S
N3171      H3191   1.046       .  S
N3171      H3192   1.046       .  S
C3173      C3176   1.400       .  A
C3173      C3180   1.411       .  A
N3174      H3189   1.046       .  S
N3174      H3190   1.045       .  S
C3176      C3177   1.402       .  A
C3176      H3181   1.084       .  S
C3177      C3178   1.412       .  A
C3177      N3182   1.438       .  S
C3178      C3179   1.402       .  A
C3179      C3180   1.404       .  A
C3179      H3183   1.084       .  S
C3180      N3184   1.438       .  S
N3182      H3185   1.045       .  S
N3182      H3186   1.046       .  S
N3184      H3187   1.046       .  S
N3184      H3188   1.045       .  S
C3193      C3194   1.418       .  A
C3193      C3198   1.409       .  A
C3194      C3195   1.403       .  A
C3194      N3199   1.438       .  S
C3195      C3196   1.397       .  A
C3195      H3200   1.084       .  S
C3196      C3201   1.473       .  S
C3196      C3197   1.405       .  A
C3197      C3198   1.405       .  A
C3197      N3202   1.438       .  S
C3198      H3203   1.083       .  S
N3199      H3219   1.045       .  S
N3199      H3220   1.046       .  S
C3201      C3204   1.398       .  A
C3201      C3208   1.406       .  A
N3202      H3217   1.046       .  S
N3202      H3218   1.045       .  S
C3204      C3205   1.404       .  A
C3204      H3209   1.084       .  S
C3205      C3206   1.418       .  A
C3205      N3210   1.438       .  S
C3206      C3207   1.407       .  A
C3207      C3208   1.404       .  A
C3207      H3211   1.083       .  S
C3208      N3212   1.438       .  S
N3210      H3213   1.046       .  S
N3210      H3214   1.045       .  S
N3212      H3215   1.046       .  S
N3212      H3216   1.045       .  S
C3221      C3222   1.415       .  A
C3221      C3226   1.405       .  A
C3222      C3223   1.403       .  A
C3222      N3227   1.438       .  S
C3223      C3224   1.401       .  A
C3223      H3228   1.084       .  S
C3224      C3229   1.480   1_455  S
C3224      C3225   1.409       .  A
C3225      C3226   1.405       .  A
C3225      N3230   1.438       .  S
C3226      H3231   1.083       .  S
N3227      H3247   1.046       .  S
N3227      H3248   1.045       .  S
C3229      C3232   1.401       .  A
C3229      C3236   1.409       .  A
N3230      H3245   1.046       .  S
N3230      H3246   1.045       .  S
C3232      C3233   1.404       .  A
C3232      H3237   1.084       .  S
C3233      C3234   1.414       .  A
C3233      N3238   1.438       .  S
C3234      C3235   1.404       .  A
C3235      C3236   1.404       .  A
C3235      H3239   1.084       .  S
C3236      N3240   1.438       .  S
N3238      H3241   1.046       .  S
N3238      H3242   1.046       .  S
N3240      H3243   1.046       .  S
N3240      H3244   1.046       .  S
C3249      C3250   1.416       .  A
C3249      C3254   1.407       .  A
C3250      C3251   1.404       .  A
C3250      N3255   1.438       .  S
C3251      C3252   1.399       .  A
C3251      H3256   1.084       .  S
C3252      C3257   1.477       .  S
C3252      C3253   1.407       .  A
C3253      C3254   1.407       .  A
C3253      N3258   1.438       .  S
C3254      H3259   1.083       .  S
N3255      H3275   1.046       .  S
N3255      H3276   1.045       .  S
C3257      C3260   1.399       .  A
C3257      C3264   1.406       .  A
N3258      H3273   1.046       .  S
N3258      H3274   1.045       .  S
C3260      C3261   1.407       .  A
C3260      H3265   1.084       .  S
C3261      C3262   1.419       .  A
C3261      N3266   1.438       .  S
C3262      C3263   1.407       .  A
C3263      C3264   1.403       .  A
C3263      H3267   1.083       .  S
C3264      N3268   1.438       .  S
N3266      H3269   1.047       .  S
N3266      H3270   1.045       .  S
N3268      H3271   1.046       .  S
N3268      H3272   1.045       .  S
C3277      C3278   1.419       .  A
C3277      C3282   1.409       .  A
C3278      C3279   1.407       .  A
C3278      N3283   1.438       .  S
C3279      C3280   1.402       .  A
C3279      H3284   1.084       .  S
C3280      C3285   1.486       .  S
C3280      C3281   1.409       .  A
C3281      C3282   1.405       .  A
C3281      N3286   1.438       .  S
C3282      H3287   1.083       .  S
N3283      H3303   1.045       .  S
N3283      H3304   1.046       .  S
C3285      C3288   1.403       .  A
C3285      C3292   1.411       .  A
N3286      H3301   1.046       .  S
N3286      H3302   1.045       .  S
C3288      C3289   1.406       .  A
C3288      H3293   1.084       .  S
C3289      C3290   1.412       .  A
C3289      N3294   1.438       .  S
C3290      C3291   1.405       .  A
C3291      C3292   1.406       .  A
C3291      H3295   1.084       .  S
C3292      N3296   1.438       .  S
N3294      H3297   1.047       .  S
N3294      H3298   1.045       .  S
N3296      H3299   1.046       .  S
N3296      H3300   1.045       .  S
C3305      C3306   1.414       .  A
C3305      C3310   1.406       .  A
C3306      C3307   1.403       .  A
C3306      N3311   1.438       .  S
C3307      C3308   1.401       .  A
C3307      H3312   1.084       .  S
C3308      C3313   1.480   1_455  S
C3308      C3309   1.409       .  A
C3309      C3310   1.406       .  A
C3309      N3314   1.438       .  S
C3310      H3315   1.084       .  S
N3311      H3331   1.046       .  S
N3311      H3332   1.045       .  S
C3313      C3316   1.401       .  A
C3313      C3320   1.410       .  A
N3314      H3329   1.046       .  S
N3314      H3330   1.045       .  S
C3316      C3317   1.404       .  A
C3316      H3321   1.084       .  S
C3317      C3318   1.414       .  A
C3317      N3322   1.438       .  S
C3318      C3319   1.404       .  A
C3319      C3320   1.404       .  A
C3319      H3323   1.084       .  S
C3320      N3324   1.438       .  S
N3322      H3325   1.045       .  S
N3322      H3326   1.046       .  S
N3324      H3327   1.046       .  S
N3324      H3328   1.046       .  S
C3333      C3334   1.414       .  A
C3333      C3338   1.405       .  A
C3334      C3335   1.404       .  A
C3334      N3339   1.438       .  S
C3335      C3336   1.401       .  A
C3335      H3340   1.084       .  S
C3336      C3341   1.480   1_565  S
C3336      C3337   1.409       .  A
C3337      C3338   1.405       .  A
C3337      N3342   1.438       .  S
C3338      H3343   1.084       .  S
N3339      H3359   1.046       .  S
N3339      H3360   1.045       .  S
C3341      C3344   1.400       .  A
C3341      C3348   1.409       .  A
N3342      H3357   1.046       .  S
N3342      H3358   1.046       .  S
C3344      C3345   1.403       .  A
C3344      H3349   1.084       .  S
C3345      C3346   1.414       .  A
C3345      N3350   1.438       .  S
C3346      C3347   1.405       .  A
C3347      C3348   1.406       .  A
C3347      H3351   1.084       .  S
C3348      N3352   1.438       .  S
N3350      H3353   1.046       .  S
N3350      H3354   1.045       .  S
N3352      H3355   1.046       .  S
N3352      H3356   1.046       .  S
