geometry optimzed in LAMMPS
_audit_creation_date              2020-12-01 
_audit_creation_method            'lammps2cif' 
_symmetry_space_group_name_H-M    'P1' 
_symmetry_Int_Tables_number       1 
_symmetry_cell_setting            triclinic 
loop_ 
_symmetry_equiv_pos_as_xyz 
  x,y,z 
_cell_length_a                    30.33124026 
_cell_length_b                    29.820831725437703 
_cell_length_c                    29.74163358327688 
_cell_angle_alpha                 87.02138513210217 
_cell_angle_beta                  89.96551823247928 
_cell_angle_gamma                 90.58937811643983 
loop_ 
_atom_site_label 
_atom_site_type_symbol 
_atom_site_fract_x 
_atom_site_fract_y 
_atom_site_fract_z 
_atom_site_charge 
O1          O  0.66850859  0.79938626  0.68039363    -0.80800
O2          O  0.85034173  0.73359705  0.76332634    -0.65500
O3          O  0.73476158  0.73753858  0.71077448    -1.12100
C4          C  0.69460738  0.76686492  0.86027163     1.06000
O5          O  0.82227403  0.68721047  0.81567734    -0.78700
O6          O  0.73894571  0.66969280  0.83755870    -0.66300
Ni7        Ni  0.72293271  0.77436582  0.65765121     1.34900
C8          C  0.70845989  0.66015201  0.81048029     0.84800
O9          O  0.81851583  0.71799584  0.68121098    -0.79300
O10         O  0.77375094  0.74972388  0.62833952    -0.89600
C11         C  0.85544973  0.70592452  0.79678374     0.84300
O12         O  0.75523588  0.82735283  0.67347340    -0.67800
O13         O  0.73201230  0.75166201  0.87271234    -0.87000
C14         C  0.79094443  0.83182972  0.69537426     0.85200
C15         C  0.80682014  0.72561045  0.64056331     1.06700
H16         H  0.77153852  0.78503317  0.79313788     0.38600
O17         O  0.76437571  0.75400350  0.78827442    -1.09700
O18         O  0.69479888  0.68814500  0.77978132    -0.66400
Ni19       Ni  0.70612462  0.75180924  0.76498016     1.26300
O20         O  0.80847902  0.79927993  0.71823664    -0.66600
O21         O  0.67960912  0.76713971  0.82027165    -0.78900
C22         C  0.63914279  0.78005932  0.70568224     0.84600
O23         O  0.64941902  0.75257386  0.73786739    -0.66100
Ni24       Ni  0.77694821  0.72042205  0.84280984     1.27400
Ni25       Ni  0.79319521  0.73698946  0.73503376     1.26100
H26         H  0.72704436  0.70710610  0.70400443     0.39100
C27         C  0.81891956  0.34417044  0.44684887     0.86500
C28         C  0.81324168  0.39428070  0.45331741    -0.53700
C29         C  0.83138050  0.40871814  0.49231868     0.09500
C30         C  0.85303010  0.37049435  0.52184844     0.20400
C31         C  0.86838307  0.33672256  0.45117459    -0.54400
C32         C  0.88614680  0.34898181  0.49058682     0.09600
C33         C  0.79885328  0.32044435  0.48932440    -0.54000
C34         C  0.81676988  0.33387788  0.52890101     0.10100
H35         H  0.79846696  0.41674576  0.42782181     0.14600
H36         H  0.86836436  0.38151798  0.55324955     0.00400
H37         H  0.88779586  0.32146179  0.42539603     0.14900
H38         H  0.77406890  0.29399334  0.48805949     0.14700
C39         C  0.13112381  0.30562556  0.43679998     0.86500
C40         C  0.08159160  0.30122089  0.44514701    -0.53700
C41         C  0.06898238  0.31672278  0.48578182     0.09500
C42         C  0.10716359  0.33462594  0.51399788     0.20400
C43         C  0.14168538  0.35530425  0.44226870    -0.54400
C44         C  0.12904420  0.37090142  0.48241463     0.09600
C45         C  0.15221681  0.28049824  0.47680280    -0.54000
C46         C  0.14005081  0.29547352  0.51722819     0.10100
H47         H  0.05852887  0.28908972  0.42052286     0.14600
H48         H  0.09630008  0.34665001  0.54681469     0.00400
H49         H  0.15793505  0.37619707  0.41610794     0.14900
H50         H  0.17525425  0.25318601  0.47332952     0.14700
C51         C  0.84431559  0.67646212  0.53005800     0.86500
C52         C  0.83239088  0.62632181  0.53692233    -0.53700
C53         C  0.85234163  0.60003004  0.50684966     0.09500
C54         C  0.88217921  0.62614512  0.47254149     0.20400
C55         C  0.89468202  0.67869929  0.53138651    -0.54400
C56         C  0.91471322  0.65202101  0.50159661     0.09600
C57         C  0.83260544  0.68875648  0.48126014    -0.54000
C58         C  0.85234902  0.66246604  0.45100019     0.10100
H59         H  0.81017255  0.61288981  0.56304299     0.14600
H60         H  0.89763257  0.60478732  0.44755680     0.00400
H61         H  0.91265990  0.69824917  0.55526092     0.14900
H62         H  0.81047906  0.71593279  0.47129882     0.14700
C63         C  0.17134306  0.62574362  0.55534964     0.86500
C64         C  0.12228780  0.63707730  0.55523041    -0.53700
C65         C  0.10025779  0.62208818  0.51895668     0.09500
C66         C  0.12889554  0.59639954  0.48682676     0.20400
C67         C  0.17271356  0.57449571  0.55230513    -0.54400
C68         C  0.15004480  0.55887756  0.51663788     0.09600
C69         C  0.18899844  0.64489035  0.51000338    -0.54000
C70         C  0.16653822  0.62912597  0.47412901     0.10100
H71         H  0.10644167  0.65539325  0.58131431     0.14600
H72         H  0.11028136  0.58517894  0.45729782     0.00400
H73         H  0.19008411  0.55263284  0.57647415     0.14900
H74         H  0.21654504  0.66837806  0.50655453     0.14700
C75         C  0.36217632  0.42937498  0.83832123     0.86500
C76         C  0.41205166  0.43338561  0.83090519    -0.53700
C77         C  0.43011333  0.47308050  0.84411692     0.09500
C78         C  0.39586508  0.50537005  0.86346449     0.20400
C79         C  0.35577077  0.43783089  0.88844495    -0.54400
C80         C  0.37338714  0.47704593  0.90221637     0.09600
C81         C  0.34295880  0.47095293  0.81356478    -0.54000
C82         C  0.35998819  0.51111579  0.82651436     0.10100
H83         H  0.43150887  0.40647703  0.81808042     0.14600
H84         H  0.41038417  0.53742879  0.87400941     0.00400
H85         H  0.33791549  0.41455817  0.91127827     0.14900
H86         H  0.31676444  0.46874811  0.78885617     0.14700
C87         C  0.33729343  0.56642652  0.15461950     0.86500
C88         C  0.38667844  0.56483102  0.16599602    -0.53700
C89         C  0.40762179  0.52735679  0.15252912     0.09500
C90         C  0.37639775  0.49387279  0.12978484     0.20400
C91         C  0.33509778  0.56010463  0.10366140    -0.54400
C92         C  0.35594477  0.52236651  0.09009889     0.09600
C93         C  0.31836555  0.52273259  0.17614477    -0.54000
C94         C  0.33798308  0.48448114  0.16342073     0.10100
H95         H  0.40398912  0.59069380  0.18334423     0.14600
H96         H  0.39323974  0.46332979  0.11946115     0.00400
H97         H  0.31844287  0.58365504  0.08057405     0.14900
H98         H  0.29047738  0.52216673  0.19916490     0.14700
C99         C  0.69269647  0.45254784  0.85288815     0.86500
C100        C  0.69024888  0.45746468  0.90382480    -0.53700
C101        C  0.66678027  0.49306598  0.91710472     0.09500
C102        C  0.64854914  0.52232391  0.87703168     0.20400
C103        C  0.64445021  0.45246489  0.83760937    -0.54400
C104        C  0.62078254  0.48867231  0.85045669     0.09600
C105        C  0.71221481  0.49741942  0.83443089    -0.54000
C106        C  0.68918448  0.53424285  0.84663643     0.10100
H107        H  0.70530927  0.43372287  0.92800580     0.14600
H108        H  0.63011269  0.55204941  0.88741180     0.00400
H109        H  0.62968787  0.42441776  0.82102376     0.14900
H110        H  0.74277728  0.49999200  0.81538545     0.14700
C111        C  0.66739265  0.47160632  0.18809774     0.86500
C112        C  0.61694925  0.47436041  0.19274689    -0.53700
C113        C  0.59787789  0.50759583  0.16652095     0.09500
C114        C  0.63156158  0.53619280  0.13845387     0.20400
C115        C  0.67495062  0.46798867  0.13734564    -0.54400
C116        C  0.65603799  0.50171028  0.11103133     0.09600
C117        C  0.68444891  0.51834319  0.19872007    -0.54000
C118        C  0.66569190  0.55246448  0.17270631     0.10100
H119        H  0.59771254  0.45121532  0.21448422     0.14600
H120        H  0.61646726  0.56357715  0.11715406     0.00400
H121        H  0.69259404  0.44036152  0.12347713     0.14900
H122        H  0.70843084  0.52367308  0.22501214     0.14700
C123        C  0.53897096  0.81637161  0.33305741     0.86500
C124        C  0.53663858  0.86699978  0.32195389    -0.53700
C125        C  0.50028769  0.88749286  0.33868587     0.09500
C126        C  0.46813095  0.85388236  0.36363893     0.20400
C127        C  0.53374203  0.81157299  0.38448945    -0.54400
C128        C  0.49710969  0.83133130  0.40111246     0.09600
C129        C  0.49625668  0.79693165  0.31459493    -0.54000
C130        C  0.45875961  0.81644061  0.32974602     0.10100
H131        H  0.56298349  0.88532677  0.30411343     0.14600
H132        H  0.43865953  0.87012805  0.37727335     0.00400
H133        H  0.55787480  0.79471895  0.40620127     0.14900
H134        H  0.49576881  0.77067216  0.29061546     0.14700
C135        C  0.53222211  0.15743350  0.32326999     0.86500
C136        C  0.52993090  0.16013721  0.37445449    -0.53700
C137        C  0.49514266  0.13725070  0.39433786     0.09500
C138        C  0.46503576  0.11397947  0.36018115     0.20400
C139        C  0.53163988  0.10713848  0.31521182    -0.54400
C140        C  0.49714461  0.08363897  0.33514821     0.09600
C141        C  0.48760452  0.17432792  0.30602845    -0.54000
C142        C  0.45196276  0.15186044  0.32476088     0.10100
H143        H  0.55493811  0.17711537  0.39366388     0.14600
H144        H  0.43670197  0.09540859  0.37612776     0.00400
H145        H  0.55747972  0.09127423  0.29657684     0.14900
H146        H  0.48498437  0.20039200  0.27936295     0.14700
C147        C  0.44738059  0.82021955  0.67288257     0.86500
C148        C  0.44870287  0.87101122  0.67920993    -0.53700
C149        C  0.48045779  0.89356210  0.65459446     0.09500
C150        C  0.50911543  0.86312156  0.62653354     0.20400
C151        C  0.44356186  0.81564698  0.62149479    -0.54400
C152        C  0.47611286  0.83798575  0.59669376     0.09600
C153        C  0.49413228  0.80444008  0.68463772    -0.54000
C154        C  0.52695947  0.82698437  0.66080179     0.10100
H155        H  0.42600250  0.88786963  0.70083021     0.14600
H156        H  0.53538892  0.88233214  0.60784074     0.00400
H157        H  0.41792658  0.79562879  0.60655092     0.14900
H158        H  0.49991752  0.77775661  0.70996987     0.14700
C159        C  0.55359775  0.15147305  0.65392969     0.86500
C160        C  0.54471646  0.10202937  0.66800950    -0.53700
C161        C  0.50485359  0.08613759  0.65373929     0.09500
C162        C  0.47685486  0.12207829  0.62775356     0.20400
C163        C  0.54692042  0.15420419  0.60264842    -0.54400
C164        C  0.50723808  0.13838609  0.58838537     0.09600
C165        C  0.51495963  0.17707023  0.67267283    -0.54000
C166        C  0.47442962  0.16206083  0.65980040     0.10100
H167        H  0.56920448  0.08065702  0.68463765     0.14600
H168        H  0.44479266  0.10877399  0.61621764     0.00400
H169        H  0.57248824  0.16597013  0.57915995     0.14900
H170        H  0.51936030  0.20462659  0.69480434     0.14700
O171        O  0.31636085  0.17809385  0.66731393    -0.80800
O172        O  0.16081144  0.27563875  0.75721586    -0.65500
O173        O  0.26749348  0.25183428  0.69604308    -1.12100
C174        C  0.32345971  0.21790447  0.84135482     1.06000
O175        O  0.18976588  0.30757899  0.81612034    -0.78700
O176        O  0.27865830  0.31967070  0.81130228    -0.66300
Ni177      Ni  0.26501083  0.21121113  0.64848467     1.34900
C178        C  0.31114303  0.32342991  0.78429388     0.84800
O179        O  0.18623495  0.28744432  0.67279457    -0.79300
O180        O  0.21395591  0.24075617  0.62354094    -0.89600
C181        C  0.15734459  0.29999944  0.79045770     0.84300
O182        O  0.23041699  0.16524949  0.67862523    -0.67800
O183        O  0.29105277  0.23985226  0.85588538    -0.87000
C184        C  0.19587256  0.16826653  0.70209548     0.85200
C185        C  0.18810635  0.27218037  0.63385713     1.06700
H186        H  0.23203845  0.20961007  0.78602039     0.38600
O187        O  0.24351729  0.23931644  0.77810672    -1.09700
O188        O  0.32141132  0.29304285  0.75714831    -0.66400
Ni189      Ni  0.29928924  0.23191197  0.74791172     1.26300
O190        O  0.18458511  0.20500733  0.71853582    -0.66600
O191        O  0.32971489  0.21064411  0.80028738    -0.78900
C192        C  0.35213683  0.19169240  0.68411956     0.84600
O193        O  0.35224457  0.22121362  0.71374011    -0.66100
Ni194      Ni  0.24119677  0.27179612  0.83201605     1.27400
Ni195      Ni  0.21331972  0.26303988  0.72603013     1.26100
H196        H  0.27974730  0.28004442  0.68412650     0.39100
O197        O  0.23189489  0.87190369  0.31588805    -0.80800
O198        O  0.31580345  0.71233882  0.22306930    -0.65500
O199        O  0.23695896  0.80579568  0.25242677    -1.12100
C200        C  0.19349282  0.70046766  0.36774422     1.06000
O201        O  0.26117462  0.66260779  0.22487040    -0.78700
O202        O  0.17990639  0.68565543  0.25032674    -0.66300
Ni203      Ni  0.25740147  0.86596288  0.25725363     1.34900
C204        C  0.15503467  0.71963541  0.25001489     0.84800
O205        O  0.29810293  0.79302795  0.18454672    -0.79300
O206        O  0.28473976  0.86513695  0.19895839    -0.89600
C207        C  0.30020393  0.67438912  0.21333466     0.84300
O208        O  0.31171294  0.85401329  0.28667323    -0.67800
O209        O  0.20397547  0.67069806  0.34029047    -0.87000
C210        C  0.33678737  0.82044419  0.29006427     0.85200
C211        C  0.29849918  0.83483941  0.17377871     1.06700
H212        H  0.27757427  0.72718016  0.31253863     0.38600
O213        O  0.25499414  0.72936260  0.28964541    -1.09700
O214        O  0.16413763  0.75423657  0.27164997    -0.66400
Ni215      Ni  0.21454431  0.77499145  0.30537368     1.26300
O216        O  0.32767179  0.78311471  0.27260697    -0.66600
O217        O  0.19535749  0.74250305  0.35843373    -0.78900
C218        C  0.19276302  0.86162475  0.32794022     0.84600
O219        O  0.17686718  0.82328891  0.32056016    -0.66100
Ni220      Ni  0.23263207  0.66997927  0.28238340     1.27400
Ni221      Ni  0.27807510  0.76068071  0.23754074     1.26100
H222        H  0.21433493  0.80675353  0.22955430     0.39100
O223        O  0.69837597  0.34308316  0.22791013    -0.80800
O224        O  0.76061489  0.14328654  0.27620437    -0.65500
O225        O  0.73054243  0.26802207  0.27560670    -1.12100
C226        C  0.87987984  0.29544931  0.24207340     1.06000
O227        O  0.82868706  0.15004213  0.30278609    -0.78700
O228        O  0.82452850  0.23142620  0.33916622    -0.66300
Ni229      Ni  0.67604347  0.28581814  0.24769397     1.34900
C230        C  0.81281877  0.27158601  0.34423655     0.84800
O231        O  0.68987499  0.18569995  0.30210627    -0.79300
O232        O  0.64374114  0.23194616  0.26555585    -0.89600
C233        C  0.79505443  0.12628360  0.29393866     0.84300
O234        O  0.69226659  0.26338962  0.19190058    -0.67800
O235        O  0.88202219  0.26550999  0.27395363    -0.87000
C236        C  0.70733241  0.22517651  0.18396630     0.85200
C237        C  0.65118558  0.19795059  0.29174050     1.06700
H238        H  0.80416419  0.21708687  0.22096470     0.38600
O239        O  0.80014986  0.22656473  0.25123354    -1.09700
O240        O  0.80556433  0.29942603  0.31085434    -0.66400
Ni241      Ni  0.78609245  0.28931806  0.24947035     1.26300
O242        O  0.72326698  0.19813172  0.21446751    -0.66600
O243        O  0.84317515  0.30675116  0.22404639    -0.78900
C244        C  0.73243148  0.36763003  0.23118292     0.84600
O245        O  0.76948802  0.35210478  0.24458998    -0.66100
Ni246      Ni  0.85069000  0.20960209  0.28665473     1.27400
Ni247      Ni  0.74465252  0.20542716  0.27551653     1.26100
H248        H  0.72850809  0.27611827  0.30656635     0.39100
O249        O  0.79462640  0.25548425  0.65336568    -0.80800
O250        O  0.72011166  0.18048135  0.83463912    -0.65500
O251        O  0.73958457  0.25560041  0.72802524    -1.12100
C252        C  0.85638236  0.31484225  0.81453437     1.06000
O253        O  0.72276248  0.24158099  0.87265266    -0.78700
O254        O  0.74590989  0.32299048  0.83899103    -0.66300
Ni255      Ni  0.73741072  0.23195215  0.66988702     1.34900
C256        C  0.74470491  0.34690051  0.80249828     0.84800
O257        O  0.67486623  0.19072391  0.75613286    -0.79300
O258        O  0.67955698  0.20817547  0.68175835    -0.89600
C259        C  0.71661855  0.19959645  0.87160927     0.84300
O260        O  0.76233422  0.17410054  0.68395940    -0.67800
O261        O  0.83195827  0.30271437  0.84788088    -0.87000
C262        C  0.77101580  0.15165559  0.72036859     0.85200
C263        C  0.65900270  0.19139349  0.71621094     1.06700
H264        H  0.80461024  0.22179764  0.80404583     0.38600
O265        O  0.78167250  0.24402168  0.80130433    -1.09700
O266        O  0.76171666  0.33452854  0.76605758    -0.66400
Ni267      Ni  0.79381635  0.28182131  0.74881677     1.26300
O268        O  0.76262727  0.16607406  0.75907447    -0.66600
O269        O  0.84753171  0.30672954  0.77351919    -0.78900
C270        C  0.80510794  0.29672690  0.65528780     0.84600
O271        O  0.80467047  0.31537014  0.69279810    -0.66100
Ni272      Ni  0.77760937  0.27088429  0.85788641     1.27400
Ni273      Ni  0.72878961  0.21621011  0.77963021     1.26100
H274        H  0.71706559  0.27828554  0.72795067     0.39100
C275        C  0.65687694  0.84727739  0.94546423     0.86500
C276        C  0.60661502  0.84648266  0.94647707    -0.53700
C277        C  0.58900952  0.86234973  0.98479644     0.09500
C278        C  0.62396742  0.87758639  0.01847151     0.20400
C279        C  0.67024031  0.89573624  0.95280141    -0.54400
C280        C  0.65314561  0.91156519  0.99116310     0.09600
C281        C  0.67107173  0.82103144  0.98833681    -0.54000
C282        C  0.65342522  0.83649957  0.02681445     0.10100
H283        H  0.58707936  0.83305323  0.91963582     0.14600
H284        H  0.61061991  0.89104594  0.04974376     0.00400
H285        H  0.69118468  0.91583158  0.92978472     0.14900
H286        H  0.69444520  0.79379794  0.98765945     0.14700
C287        C  0.69469337  0.15662012  0.07907129     0.86500
C288        C  0.64460218  0.16278148  0.07411542    -0.53700
C289        C  0.62797442  0.14989352  0.03408575     0.09500
C290        C  0.66302581  0.13134122  0.00304274     0.20400
C291        C  0.70216138  0.10696788  0.07138282    -0.54400
C292        C  0.68498637  0.09385593  0.03186193     0.09600
C293        C  0.71464543  0.18221897  0.03758149    -0.54000
C294        C  0.69807303  0.16883703  0.99753475     0.10100
H295        H  0.62439456  0.17667629  0.10001759     0.14600
H296        H  0.64943359  0.11934964  0.97120982     0.00400
H297        H  0.71630615  0.08350660  0.09641801     0.14900
H298        H  0.73897229  0.20899802  0.03975458     0.14700
C299        C  0.32940551  0.84724496  0.04886453     0.86500
C300        C  0.37977222  0.84252052  0.05024404    -0.53700
C301        C  0.40076760  0.86107685  0.01307092     0.09500
C302        C  0.36911386  0.88273103  0.97822712     0.20400
C303        C  0.32096276  0.89770546  0.04040673    -0.54400
C304        C  0.34287765  0.91619149  0.00420476     0.09600
C305        C  0.31554260  0.82587128  0.00488266    -0.54000
C306        C  0.33664391  0.84512256  0.96772260     0.10100
H307        H  0.39680290  0.82530378  0.07808406     0.14600
H308        H  0.38479853  0.89909332  0.94787509     0.00400
H309        H  0.30291198  0.91784787  0.06349239     0.14900
H310        H  0.29115275  0.79912104  0.00317408     0.14700
C311        C  0.37453903  0.18069677  0.95344639     0.86500
C312        C  0.42511227  0.18186757  0.95419991    -0.53700
C313        C  0.44276629  0.15529240  0.98850568     0.09500
C314        C  0.40791757  0.12953676  0.01773027     0.20400
C315        C  0.36143796  0.13119892  0.95127753    -0.54400
C316        C  0.37911908  0.10456555  0.98475990     0.09600
C317        C  0.36057983  0.19320103  0.00048286    -0.54000
C318        C  0.37802319  0.16613418  0.03426191     0.10100
H319        H  0.44470516  0.20339676  0.93122764     0.14600
H320        H  0.42124565  0.10708016  0.04527721     0.00400
H321        H  0.33967749  0.11835030  0.92582300     0.14900
H322        H  0.33701405  0.21948175  0.00615447     0.14700
O323        O  0.28357477  0.62459250  0.78831747    -0.80800
O324        O  0.18860180  0.80183507  0.71539754    -0.65500
O325        O  0.27232875  0.70569671  0.73588356    -1.12100
C326        C  0.31623925  0.78157733  0.86066128     1.06000
O327        O  0.22271375  0.85481253  0.75296432    -0.78700
O328        O  0.30492902  0.82414679  0.73873367    -0.66300
Ni329      Ni  0.25363850  0.64446858  0.73433536     1.34900
C330        C  0.33605219  0.79643594  0.73503359     0.84800
O331        O  0.21244911  0.73182079  0.66825115    -0.79300
O332        O  0.22286774  0.65762159  0.67968293    -0.89600
C333        C  0.19268078  0.84253652  0.72635463     0.84300
O334        O  0.20173670  0.64892851  0.76958407    -0.67800
O335        O  0.31606849  0.81328851  0.83052051    -0.87000
C336        C  0.17462026  0.68044264  0.77336926     0.85200
C337        C  0.21063199  0.69169362  0.65546912     1.06700
H338        H  0.22503573  0.76330512  0.80695908     0.38600
O339        O  0.24802500  0.76926589  0.78488810    -1.09700
O340        O  0.33902197  0.76035410  0.76059448    -0.66400
Ni341      Ni  0.29265553  0.72369244  0.79240511     1.26300
O342        O  0.18044933  0.71970347  0.75506092    -0.66600
O343        O  0.30820315  0.74163355  0.85089432    -0.78900
C344        C  0.32239497  0.63439696  0.80034366     0.84600
O345        O  0.33509679  0.67532304  0.79913596    -0.66100
Ni346      Ni  0.26865096  0.82957965  0.79008878     1.27400
Ni347      Ni  0.22923736  0.75217345  0.72607888     1.26100
H348        H  0.29531086  0.71034110  0.71356848     0.39100
C349        C  0.81795614  0.04263017  0.66940402     0.86500
C350        C  0.86611687  0.04119010  0.68472777    -0.53700
C351        C  0.88868832  0.00374688  0.67329459     0.09500
C352        C  0.85927936  0.96964580  0.64877875     0.20400
C353        C  0.81999073  0.03526873  0.61873874    -0.54400
C354        C  0.84132923  0.99747409  0.60782232     0.09600
C355        C  0.79659994  0.99911749  0.68959775    -0.54000
C356        C  0.81757713  0.96048146  0.67862009     0.10100
H357        H  0.88176326  0.06914084  0.70070574     0.14600
H358        H  0.87659376  0.93890676  0.63925921     0.00400
H359        H  0.80525667  0.05785027  0.59324518     0.14900
H360        H  0.76544120  0.99874263  0.70762530     0.14700
C361        C  0.15341655  0.04560714  0.68814303     0.86500
C362        C  0.15949491  0.03617765  0.63868492    -0.53700
C363        C  0.13902024  0.99829878  0.62514223     0.09500
C364        C  0.11383369  0.97201710  0.66359070     0.20400
C365        C  0.10318129  0.04571090  0.69489576    -0.54400
C366        C  0.08182238  0.00753527  0.68162565     0.09600
C367        C  0.16873636  0.00295198  0.71378363    -0.54000
C368        C  0.14904324  0.96396957  0.70124460     0.10100
H369        H  0.17733268  0.05920432  0.61549145     0.14600
H370        H  0.09730637  0.94104317  0.65269147     0.00400
H371        H  0.08571938  0.07381651  0.70786002     0.14900
H372        H  0.19471695  0.00350456  0.73891462     0.14700
C373        C  0.82710757  0.92925747  0.34854266     0.86500
C374        C  0.87788350  0.92942797  0.34192778    -0.53700
C375        C  0.89878767  0.96527687  0.35975144     0.09500
C376        C  0.86746938  0.99696376  0.38295051     0.20400
C377        C  0.82091567  0.93163731  0.39955231    -0.54400
C378        C  0.84226129  0.96675352  0.41786385     0.09600
C379        C  0.81209677  0.97548176  0.32866995    -0.54000
C380        C  0.83352291  0.01108502  0.34661235     0.10100
H381        H  0.89611127  0.90449628  0.32461935     0.14600
H382        H  0.88433183  0.02582535  0.39796032     0.00400
H383        H  0.80217883  0.90665764  0.41966989     0.14900
H384        H  0.78761782  0.97924984  0.30219587     0.14700
C385        C  0.15084899  0.05705121  0.36374169     0.86500
C386        C  0.10351027  0.04757649  0.34889051    -0.53700
C387        C  0.08568586  0.00798986  0.36668202     0.09500
C388        C  0.11849054  0.98063409  0.39692994     0.20400
C389        C  0.14936290  0.05339980  0.41544615    -0.54400
C390        C  0.13283878  0.01314791  0.43295175     0.09600
C391        C  0.17704095  0.01608606  0.35133867    -0.54000
C392        C  0.16030645  0.97615346  0.36796045     0.10100
H393        H  0.08588181  0.07091128  0.32643478     0.14600
H394        H  0.10572107  0.94815885  0.41172983     0.00400
H395        H  0.16202843  0.07938397  0.43637458     0.14900
H396        H  0.20701570  0.01851730  0.33125564     0.14700
O397        O  0.84928346  0.71482650  0.16636438    -0.80800
O398        O  0.65195551  0.75795752  0.23188093    -0.65500
O399        O  0.77498202  0.75591492  0.19907539    -1.12100
C400        C  0.78575528  0.69911184  0.35103105     1.06000
O401        O  0.67131803  0.79662836  0.28979670    -0.78700
O402        O  0.75383697  0.80793287  0.32047872    -0.66300
Ni403      Ni  0.78956983  0.72428749  0.14695929     1.46100
C404        C  0.79108058  0.81424637  0.30153531     0.84800
O405        O  0.69713942  0.78184568  0.15653426    -0.79300
O406        O  0.73298786  0.73198074  0.11812444    -0.89600
C407        C  0.64141550  0.78143507  0.26475235     0.84300
O408        O  0.76996346  0.67013959  0.17729631    -0.67800
O409        O  0.75073047  0.72114592  0.35731332    -0.87000
C410        C  0.72996791  0.66242401  0.18822021     0.85200
C411        C  0.70525593  0.76332088  0.12022178     1.06700
H412        H  0.72077006  0.69979821  0.27343549     0.38600
O413        O  0.73161110  0.73034349  0.26984030    -1.09700
O414        O  0.80849173  0.78587719  0.27676225    -0.66400
Ni415      Ni  0.79290687  0.72775403  0.25611052     1.26300
O416        O  0.70248975  0.69403264  0.19474838    -0.66600
O417        O  0.80701336  0.69938894  0.31386885    -0.78900
C418        C  0.87176893  0.71682837  0.20228309     0.84600
O419        O  0.85431287  0.72383798  0.24016515    -0.66100
Ni420      Ni  0.71252181  0.75880959  0.32189038     1.27400
Ni421      Ni  0.71315669  0.75569178  0.21355527     1.26100
H422        H  0.78586168  0.78646145  0.19552139     0.39100
C423        C  0.97908342  0.68962024  0.82259547     0.86500
C424        C  0.98141409  0.63861971  0.81922026    -0.53700
C425        C  0.01643733  0.61886610  0.84075844     0.09500
C426        C  0.04776183  0.65294755  0.86197937     0.20400
C427        C  0.98200114  0.69735412  0.87312281    -0.54400
C428        C  0.01742905  0.67766388  0.89456313     0.09600
C429        C  0.02254866  0.70761354  0.80326655    -0.54000
C430        C  0.05870881  0.68839607  0.82316210     0.10100
H431        H  0.95600208  0.61943387  0.80277967     0.14600
H432        H  0.07695618  0.63707277  0.87833967     0.00400
H433        H  0.95731378  0.71627700  0.89027223     0.14900
H434        H  0.02465872  0.73247802  0.77529612     0.14700
C435        C  0.06566860  0.67848120  0.16582100     0.86500
C436        C  0.05711699  0.62797266  0.17302529    -0.53700
C437        C  0.02169780  0.61223940  0.15028214     0.09500
C438        C  0.99793216  0.64877344  0.12170559     0.20400
C439        C  0.06917433  0.68650544  0.11428506    -0.54400
C440        C  0.03379106  0.67092801  0.09081529     0.09600
C441        C  0.02146317  0.70005578  0.17884947    -0.54000
C442        C  0.98593432  0.68416310  0.15551549     0.10100
H443        H  0.07791067  0.60622001  0.19420236     0.14600
H444        H  0.96905168  0.63533201  0.10367503     0.00400
H445        H  0.09750257  0.70291650  0.09800479     0.14900
H446        H  0.01825578  0.72500854  0.20383754     0.14700
C447        C  0.97564481  0.35360113  0.83727132     0.86500
C448        C  0.97586636  0.34532959  0.88873407    -0.53700
C449        C  0.01039415  0.36519968  0.91001932     0.09500
C450        C  0.04249578  0.39073235  0.87695143     0.20400
C451        C  0.97806113  0.40471725  0.82956812    -0.54400
C452        C  0.01263916  0.42457420  0.85075561     0.09600
C453        C  0.02025344  0.33689111  0.82202487    -0.54000
C454        C  0.05576651  0.35611092  0.84239959     0.10100
H455        H  0.95033729  0.32584784  0.90663214     0.14600
H456        H  0.07082790  0.40693973  0.89351074     0.00400
H457        H  0.95345357  0.42371698  0.81035811     0.14900
H458        H  0.02269002  0.31069157  0.79826539     0.14700
C459        C  0.05991684  0.35664240  0.17970868     0.86500
C460        C  0.06110135  0.34988834  0.12898409    -0.53700
C461        C  0.02442945  0.36477748  0.10595153     0.09500
C462        C  0.98928273  0.38480424  0.13693891     0.20400
C463        C  0.05082238  0.40667773  0.18324561    -0.54400
C464        C  0.01416848  0.42169054  0.16110767     0.09600
C465        C  0.01712910  0.33318556  0.19668314    -0.54000
C466        C  0.97961951  0.34830312  0.17468045     0.10100
H467        H  0.08909675  0.33494268  0.11294683     0.14600
H468        H  0.95931435  0.39759596  0.11943459     0.00400
H469        H  0.07254151  0.42904793  0.20086978     0.14900
H470        H  0.01682975  0.30760519  0.22398353     0.14700
O471        O  0.26980172  0.36190802  0.20258154    -0.80800
O472        O  0.19372854  0.18129769  0.27739775    -0.65500
O473        O  0.26914311  0.28355400  0.25946680    -1.12100
C474        C  0.32893415  0.20972151  0.14037829     1.06000
O475        O  0.24378624  0.13045270  0.26073394    -0.78700
O476        O  0.32586588  0.16869145  0.25808697    -0.66300
Ni477      Ni  0.24670496  0.34277176  0.26086882     1.34900
C478        C  0.35158208  0.20248123  0.25933213     0.84800
O479        O  0.20584939  0.25441091  0.32204294    -0.79300
O480        O  0.22387106  0.32820441  0.31952516    -0.89600
C481        C  0.20726956  0.14122086  0.27814605     0.84300
O482        O  0.18977465  0.33319236  0.23471231    -0.67800
O483        O  0.32181408  0.17411139  0.16511012    -0.87000
C484        C  0.16750781  0.29855135  0.22522260     0.85200
C485        C  0.20758640  0.29271447  0.33884812     1.06700
H486        H  0.23397324  0.21587038  0.18980193     0.38600
O487        O  0.25575746  0.21474981  0.21350990    -1.09700
O488        O  0.34404229  0.23981068  0.23752994    -0.66400
Ni489      Ni  0.29388474  0.26631717  0.20487051     1.26300
O490        O  0.18113080  0.25881783  0.23372817    -0.66600
O491        O  0.31608327  0.24818186  0.14997429    -0.78900
C492        C  0.31014612  0.35845283  0.19169062     0.84600
O493        O  0.32886381  0.32056630  0.19641106    -0.66100
Ni494      Ni  0.28212371  0.15659167  0.21408469     1.27400
Ni495      Ni  0.22998514  0.23353668  0.26806776     1.26100
H496        H  0.29130081  0.28091974  0.28275213     0.39100
C497        C  0.12346249  0.30482435  0.20349118    -0.16400
C498        C  0.10254201  0.34443443  0.20441948    -0.31600
H499        H  0.10822739  0.27711656  0.18675000     0.12600
H500        H  0.11851959  0.37091153  0.22243669     0.13200
C501        C  0.05547506  0.36597036  0.98118286    -0.13300
C502        C  0.01410008  0.36490220  0.96018972     0.08800
C503        C  0.97609037  0.36424707  0.98750193    -0.13300
C504        C  0.97940024  0.36401686  0.03451369    -0.13300
C505        C  0.02080477  0.36467445  0.05565150     0.08800
C506        C  0.05880883  0.36596179  0.02818478    -0.13300
H507        H  0.08542623  0.36633616  0.96136424     0.12800
H508        H  0.94355658  0.36440833  0.97257744     0.12800
H509        H  0.94935176  0.36271034  0.05414948     0.12800
H510        H  0.09139589  0.36762246  0.04276302     0.12800
C511        C  0.99859269  0.54073437  0.11527569    -0.13300
C512        C  0.00855806  0.56422223  0.15381930     0.08800
C513        C  0.01095975  0.54054208  0.19572620    -0.13300
C514        C  0.00812249  0.49389659  0.19850968    -0.13300
C515        C  0.00309581  0.46995133  0.15940946     0.08800
C516        C  0.99593291  0.49363604  0.11805695    -0.13300
H517        H  0.99637339  0.55842094  0.08263254     0.12800
H518        H  0.01745509  0.55802184  0.22609854     0.12800
H519        H  0.01293040  0.47630974  0.23090685     0.12800
H520        H  0.99209143  0.47576415  0.08749179     0.12800
C521        C  0.05636748  0.49759277  0.84662746    -0.13300
C522        C  0.01612135  0.47420099  0.85297037     0.08800
C523        C  0.97772814  0.49866057  0.86008883    -0.13300
C524        C  0.97875939  0.54535888  0.85799565    -0.13300
C525        C  0.01817025  0.56915190  0.84839873     0.08800
C526        C  0.05738309  0.54493116  0.84427057    -0.13300
H527        H  0.08652155  0.47937739  0.84160135     0.12800
H528        H  0.94652642  0.48155316  0.86666060     0.12800
H529        H  0.94826055  0.56298978  0.86310049     0.12800
H530        H  0.08827162  0.56245421  0.83738238     0.12800
C531        C  0.98506168  0.67852077  0.97277777    -0.13300
C532        C  0.02250457  0.67668197  0.94483608     0.08800
C533        C  0.06410976  0.67319662  0.96551323    -0.13300
C534        C  0.06806049  0.67188204  0.01271367    -0.13300
C535        C  0.03046286  0.67381299  0.04044206     0.08800
C536        C  0.98901455  0.67734979  0.01966868    -0.13300
H537        H  0.95224221  0.68008827  0.95862367     0.12800
H538        H  0.09370312  0.67187082  0.94531351     0.12800
H539        H  0.10055121  0.66857314  0.02745071     0.12800
H540        H  0.95932797  0.67956273  0.03958574     0.12800
C541        C  0.92034545  0.70992367  0.19938432    -0.16400
C542        C  0.93910712  0.69744233  0.16079654    -0.31600
H543        H  0.94027377  0.71278750  0.22943716     0.12600
H544        H  0.91820192  0.69246297  0.13180837     0.13200
C545        C  0.17056346  0.10051196  0.34307912    -0.16400
C546        C  0.17971064  0.10463735  0.29865958    -0.31600
H547        H  0.18068895  0.12689983  0.36484933     0.12600
H548        H  0.17206528  0.07680124  0.27772606     0.13200
C549        C  0.80034449  0.89008632  0.33146837    -0.16400
C550        C  0.81694342  0.85549962  0.30967415    -0.31600
H551        H  0.76551866  0.88930292  0.34017005     0.12600
H552        H  0.85093668  0.85597060  0.29867478     0.13200
C553        C  0.96193777  0.01864223  0.34927811    -0.13300
C554        C  0.94697773  0.97431319  0.35685648     0.08800
C555        C  0.97805450  0.94015588  0.36459984    -0.13300
C556        C  0.02325526  0.95068091  0.36660699    -0.13300
C557        C  0.03815795  0.99552654  0.36078732     0.08800
C558        C  0.00671314  0.02917376  0.35143556    -0.13300
H559        H  0.93879940  0.04557192  0.34250324     0.12800
H560        H  0.96732149  0.90562257  0.37063836     0.12800
H561        H  0.04629096  0.92368052  0.37308169     0.12800
H562        H  0.01611880  0.06420399  0.34745435     0.12800
C563        C  0.17706266  0.99726894  0.55100573    -0.13300
C564        C  0.13844062  0.98917921  0.57647056     0.08800
C565        C  0.09846287  0.98244868  0.55377475    -0.13300
C566        C  0.09669671  0.98771861  0.50649773    -0.13300
C567        C  0.13475514  0.00036156  0.48175904     0.08800
C568        C  0.17514767  0.00328546  0.50426119    -0.13300
H569        H  0.20841111  0.00210688  0.56760766     0.12800
H570        H  0.06819699  0.97661545  0.57262115     0.12800
H571        H  0.06526973  0.98483816  0.48956461     0.12800
H572        H  0.20504809  0.01197325  0.48570472     0.12800
C573        C  0.88185261  0.99287693  0.53503882    -0.13300
C574        C  0.84349274  0.98476644  0.56060471     0.08800
C575        C  0.80490721  0.97067461  0.53933733    -0.13300
C576        C  0.80458538  0.96461787  0.49307155    -0.13300
C577        C  0.84272668  0.97326208  0.46707217     0.08800
C578        C  0.88143536  0.98735463  0.48850274    -0.13300
H579        H  0.91163311  0.00473034  0.55086342     0.12800
H580        H  0.77474787  0.96531183  0.55849497     0.12800
H581        H  0.77417843  0.95424279  0.47742330     0.12800
H582        H  0.91141743  0.99380661  0.46935851     0.12800
C583        C  0.96203680  0.96313233  0.68517418    -0.13300
C584        C  0.93825700  0.00273237  0.67502843     0.08800
C585        C  0.96233086  0.04270305  0.66555167    -0.13300
C586        C  0.00831246  0.04366539  0.66754425    -0.13300
C587        C  0.03234651  0.00468700  0.67905408     0.08800
C588        C  0.00866745  0.96410960  0.68720760    -0.13300
H589        H  0.94460116  0.93169788  0.69228665     0.12800
H590        H  0.94559203  0.07358631  0.65581524     0.12800
H591        H  0.02511130  0.07522543  0.65927830     0.12800
H592        H  0.02610364  0.93338058  0.69591111     0.12800
C593        C  0.16319944  0.87882004  0.70648421    -0.16400
C594        C  0.16537924  0.92055459  0.72260003    -0.31600
H595        H  0.14357000  0.87261325  0.67690607     0.12600
H596        H  0.18530434  0.92472074  0.75249131     0.13200
C597        C  0.13408994  0.66986944  0.79968972    -0.16400
C598        C  0.10298828  0.70056587  0.80542659    -0.31600
H599        H  0.12853040  0.63540440  0.81223354     0.12600
H600        H  0.10773266  0.73447770  0.79089984     0.13200
C601        C  0.36532155  0.16852157  0.08174544    -0.16400
C602        C  0.35183424  0.20719665  0.09750951    -0.31600
H603        H  0.36479495  0.13774209  0.10294489     0.12600
H604        H  0.35486569  0.23817040  0.07677301     0.13200
C605        C  0.32561217  0.79117614  0.90794607    -0.16400
C606        C  0.32931074  0.83352586  0.92067802    -0.31600
H607        H  0.32701592  0.76338265  0.93300086     0.12600
H608        H  0.32963397  0.86117678  0.89541005     0.13200
C609        C  0.39498106  0.98039358  0.00032562    -0.13300
C610        C  0.35133223  0.96454301  0.99875766     0.08800
C611        C  0.31657114  0.99481939  0.99349307    -0.13300
C612        C  0.32561495  0.04073750  0.98851716    -0.13300
C613        C  0.36935565  0.05648048  0.99002026     0.08800
C614        C  0.40391799  0.02622639  0.99649027    -0.13300
H615        H  0.42211723  0.95733902  0.00515505     0.12800
H616        H  0.28274786  0.98287522  0.99271937     0.12800
H617        H  0.29858653  0.06400651  0.98406180     0.12800
H618        H  0.43777321  0.03804758  0.99777922     0.12800
C619        C  0.56733799  0.15919476  0.97716388    -0.13300
C620        C  0.58056707  0.15225157  0.02225654     0.08800
C621        C  0.54821095  0.14695128  0.05590746    -0.13300
C622        C  0.50365555  0.14844023  0.04476103    -0.13300
C623        C  0.49034294  0.15456430  0.99965774     0.08800
C624        C  0.52262098  0.16025277  0.96594079    -0.13300
H625        H  0.59144046  0.16428231  0.95049793     0.12800
H626        H  0.55717672  0.14104375  0.09091177     0.12800
H627        H  0.47973336  0.14527497  0.07176277     0.12800
H628        H  0.51338204  0.16501582  0.93088133     0.12800
C629        C  0.66470702  0.81815215  0.07236121    -0.16400
C630        C  0.68255636  0.77738616  0.07873043    -0.31600
H631        H  0.66125443  0.83985223  0.10035194     0.12600
H632        H  0.68507128  0.75512042  0.05117104     0.13200
C633        C  0.51191396  0.86713331  0.95623472    -0.13300
C634        C  0.54096553  0.86322810  0.99285719     0.08800
C635        C  0.52370757  0.85859630  0.03667908    -0.13300
C636        C  0.47816123  0.85791244  0.04357483    -0.13300
C637        C  0.44915951  0.86096862  0.00666950     0.08800
C638        C  0.46670313  0.86505648  0.96299198    -0.13300
H639        H  0.52393698  0.87164699  0.92203159     0.12800
H640        H  0.54517474  0.85478774  0.06563086     0.12800
H641        H  0.46592076  0.85533374  0.07778532     0.12800
H642        H  0.44585670  0.86602984  0.93353543     0.12800
C643        C  0.70519144  0.97483430  0.00292387    -0.13300
C644        C  0.66201751  0.95732612  0.00453226     0.08800
C645        C  0.62698942  0.98434490  0.01671063    -0.13300
C646        C  0.63482356  0.02907434  0.02553089    -0.13300
C647        C  0.67782266  0.04666201  0.02328917     0.08800
C648        C  0.71314393  0.01937228  0.01275657    -0.13300
H649        H  0.73257806  0.95407338  0.99387634     0.12800
H650        H  0.59352049  0.97128164  0.01786029     0.12800
H651        H  0.60738649  0.05003991  0.03401339     0.12800
H652        H  0.74646398  0.03279347  0.01120585     0.12800
C653        C  0.93674213  0.33177681  0.81439407    -0.16400
C654        C  0.89547309  0.34145605  0.82630230    -0.31600
H655        H  0.94232750  0.30602213  0.79054485     0.12600
H656        H  0.89082220  0.36549651  0.85212573     0.13200
C657        C  0.70416634  0.17392096  0.91357930    -0.16400
C658        C  0.71068470  0.19164062  0.95392120    -0.31600
H659        H  0.69134555  0.14004464  0.91127526     0.12600
H660        H  0.72644163  0.22444754  0.95531910     0.13200
C661        C  0.79166885  0.10646746  0.71733194    -0.16400
C662        C  0.79441608  0.08659385  0.67758257    -0.31600
H663        H  0.80476805  0.08955877  0.74758500     0.12600
H664        H  0.78049751  0.10434394  0.64815928     0.13200
C665        C  0.92260455  0.31733855  0.22874665    -0.16400
C666        C  0.93346533  0.33323063  0.18687197    -0.31600
H667        H  0.94808866  0.31591475  0.25437793     0.12600
H668        H  0.90827941  0.33539132  0.16094894     0.13200
C669        C  0.70335834  0.21211521  0.13715090    -0.16400
C670        C  0.71124528  0.17067200  0.12410766    -0.31600
H671        H  0.68870940  0.23638451  0.11316053     0.12600
H672        H  0.72549674  0.14573727  0.14760663     0.13200
C673        C  0.79632217  0.07709125  0.30562876    -0.16400
C674        C  0.82867394  0.05940032  0.33203855    -0.31600
H675        H  0.77001894  0.05583537  0.29370581     0.12600
H676        H  0.85346811  0.08187987  0.34496897     0.13200
C677        C  0.18475450  0.93484201  0.35977883    -0.16400
C678        C  0.16603748  0.89541862  0.35035794    -0.31600
H679        H  0.22001133  0.93949531  0.35442782     0.12600
H680        H  0.13073037  0.89016845  0.35428799     0.13200
C681        C  0.31706134  0.84969997  0.13027805    -0.16400
C682        C  0.30852046  0.82897668  0.09200921    -0.31600
H683        H  0.33720067  0.88010332  0.12930270     0.12600
H684        H  0.28663616  0.79990011  0.09204524     0.13200
C685        C  0.11297198  0.71823113  0.22409757    -0.16400
C686        C  0.10820381  0.69051854  0.18992536    -0.31600
H687        H  0.08590020  0.73892628  0.23417719     0.12600
H688        H  0.13699097  0.67206877  0.17976057     0.13200
C689        C  0.35489345  0.19880447  0.87413221    -0.16400
C690        C  0.35307444  0.20938088  0.91726287    -0.31600
H691        H  0.37709305  0.17283615  0.86383761     0.12600
H692        H  0.33127129  0.23584272  0.92722301     0.13200
C693        C  0.11361587  0.31963621  0.79807695    -0.16400
C694        C  0.10233951  0.34267936  0.83416314    -0.31600
H695        H  0.08921547  0.31324614  0.77253616     0.12600
H696        H  0.12721109  0.35079618  0.85877240     0.13200
C697        C  0.16641969  0.12792811  0.70792013    -0.16400
C698        C  0.18114211  0.08684812  0.69839450    -0.31600
H699        H  0.13199730  0.13303238  0.71573778     0.12600
H700        H  0.21620473  0.08337411  0.69190084     0.13200
C701        C  0.59874612  0.16916634  0.66630645    -0.16400
C702        C  0.61441477  0.17181016  0.70860616    -0.31600
H703        H  0.61965542  0.18097658  0.63838533     0.12600
H704        H  0.59447939  0.15982456  0.73719536     0.13200
C705        C  0.39282921  0.16992642  0.66834789    -0.16400
C706        C  0.43390787  0.18350971  0.67752212    -0.31600
H707        H  0.38804187  0.14213647  0.64672482     0.12600
H708        H  0.43822864  0.21170389  0.69889351     0.13200
C709        C  0.41198134  0.79592998  0.70176570    -0.16400
C710        C  0.36985501  0.80943548  0.70046460    -0.31600
H711        H  0.42178985  0.77049663  0.72718180     0.12600
H712        H  0.36104375  0.83610410  0.67588078     0.13200
C713        C  0.49611227  0.96368249  0.69473479    -0.13300
C714        C  0.48575370  0.94294686  0.65473030     0.08800
C715        C  0.47918096  0.96961667  0.61511990    -0.13300
C716        C  0.48303911  0.01646748  0.61546017    -0.13300
C717        C  0.49475930  0.03723859  0.65515057     0.08800
C718        C  0.50125133  0.01041567  0.69480151    -0.13300
H719        H  0.50110949  0.94357629  0.72566372     0.12800
H720        H  0.47082238  0.95415416  0.58403685     0.12800
H721        H  0.47852959  0.03634389  0.58431701     0.12800
H722        H  0.51058865  0.02566148  0.72570972     0.12800
C723        C  0.40589516  0.15960497  0.30807686    -0.16400
C724        C  0.39353747  0.19792025  0.28500932    -0.31600
H725        H  0.38250861  0.13194202  0.31268066     0.12600
H726        H  0.41611721  0.22638160  0.28224354     0.13200
C727        C  0.57113648  0.18268055  0.30177002    -0.16400
C728        C  0.61331374  0.17173416  0.31114694    -0.31600
H729        H  0.56440864  0.21081784  0.27816733     0.12600
H730        H  0.62004995  0.14344129  0.33455183     0.13200
C731        C  0.53004640  0.11273430  0.46714553    -0.13300
C732        C  0.49302428  0.13023061  0.44434568     0.08800
C733        C  0.45760998  0.14554663  0.46981813    -0.13300
C734        C  0.46068256  0.14604704  0.51721574    -0.13300
C735        C  0.49928307  0.13143833  0.53952778     0.08800
C736        C  0.53307832  0.11319596  0.51396280    -0.13300
H737        H  0.55759160  0.10028011  0.44839347     0.12800
H738        H  0.42876922  0.15934915  0.45296572     0.12800
H739        H  0.43408272  0.16009479  0.53608831     0.12800
H740        H  0.56279729  0.10067554  0.53018558     0.12800
C741        C  0.58183960  0.79591273  0.31760871    -0.16400
C742        C  0.59485763  0.79299974  0.27437058    -0.31600
H743        H  0.60498031  0.78527499  0.34387966     0.12600
H744        H  0.57225593  0.80073324  0.24682657     0.13200
C745        C  0.41474581  0.80284110  0.31164714    -0.16400
C746        C  0.37842967  0.82770321  0.31524104    -0.31600
H747        H  0.41327239  0.77375771  0.29111349     0.12600
H748        H  0.38032401  0.85807648  0.33369881     0.13200
C749        C  0.52673679  0.84219346  0.47884846    -0.13300
C750        C  0.49030415  0.83473732  0.45082528     0.08800
C751        C  0.44849689  0.82948226  0.47095070    -0.13300
C752        C  0.44359083  0.83046018  0.51808288    -0.13300
C753        C  0.48034564  0.83724715  0.54620260     0.08800
C754        C  0.52189582  0.84328889  0.52558703    -0.13300
H755        H  0.55938573  0.84713383  0.46457426     0.12800
H756        H  0.41977199  0.82367159  0.45036731     0.12800
H757        H  0.41091442  0.82619036  0.53236793     0.12800
H758        H  0.55127993  0.84777016  0.54547043     0.12800
C759        C  0.45649857  0.00828833  0.33491838    -0.13300
C760        C  0.49598172  0.03331747  0.33753030     0.08800
C761        C  0.53575211  0.00986763  0.34263604    -0.13300
C762        C  0.53650553  0.96310505  0.34354228    -0.13300
C763        C  0.49753781  0.93773500  0.33913103     0.08800
C764        C  0.45726685  0.96084953  0.33568897    -0.13300
H765        H  0.42527735  0.02536533  0.33126822     0.12800
H766        H  0.56666440  0.02774022  0.34649847     0.12800
H767        H  0.56799931  0.94679307  0.34825845     0.12800
H768        H  0.42659533  0.94238131  0.33262085     0.12800
C769        C  0.67657110  0.60092944  0.17629090    -0.16400
C770        C  0.71579631  0.61495505  0.19147656    -0.31600
H771        H  0.65339347  0.62544878  0.16234797     0.12600
H772        H  0.74077624  0.59049531  0.20111811     0.13200
C773        C  0.68503247  0.43233728  0.21704119    -0.16400
C774        C  0.72646815  0.41577513  0.21648833    -0.31600
H775        H  0.66029396  0.41276507  0.23616855     0.12600
H776        H  0.75314678  0.43451363  0.19967872     0.13200
C777        C  0.71806371  0.41028683  0.84365874    -0.16400
C778        C  0.72309677  0.39155994  0.80366260    -0.31600
H779        H  0.73185548  0.39234201  0.87304844     0.12600
H780        H  0.71151476  0.40861400  0.77282907     0.13200
C781        C  0.66127416  0.53933492  0.98613364    -0.13300
C782        C  0.65758156  0.49791559  0.96592204     0.08800
C783        C  0.64938902  0.45898652  0.99360485    -0.13300
C784        C  0.64839583  0.46065248  0.04031138    -0.13300
C785        C  0.65478420  0.50143443  0.06092040     0.08800
C786        C  0.65971361  0.54109688  0.03339902    -0.13300
H787        H  0.66743279  0.56983994  0.96564894     0.12800
H788        H  0.64492402  0.42669162  0.97907211     0.12800
H789        H  0.64286116  0.42976686  0.06040217     0.12800
H790        H  0.66417282  0.57311155  0.04845644     0.12800
C791        C  0.33452828  0.39898853  0.17282721    -0.16400
C792        C  0.31906301  0.44023423  0.18015175    -0.31600
H793        H  0.36503045  0.39500599  0.15444548     0.12600
H794        H  0.28944351  0.44217276  0.20055818     0.13200
C795        C  0.31109365  0.60639482  0.16993955    -0.16400
C796        C  0.32812209  0.64302072  0.18885674    -0.31600
H797        H  0.27542633  0.60309676  0.16789114     0.12600
H798        H  0.36328200  0.64953568  0.18858714     0.13200
C799        C  0.47525551  0.47928101  0.16194298    -0.13300
C800        C  0.45642299  0.52200653  0.15641896     0.08800
C801        C  0.48468885  0.55992077  0.15385276    -0.13300
C802        C  0.53044118  0.55525684  0.15712966    -0.13300
C803        C  0.54916481  0.51262218  0.16308914     0.08800
C804        C  0.52106301  0.47463982  0.16527898    -0.13300
H805        H  0.45467020  0.44939309  0.16428582     0.12800
H806        H  0.47160638  0.59339398  0.14855738     0.12800
H807        H  0.55111786  0.58511096  0.15545857     0.12800
H808        H  0.53449938  0.44116480  0.16902798     0.12800
C809        C  0.34033969  0.55401818  0.80785308    -0.16400
C810        C  0.35089386  0.59666321  0.81800213    -0.31600
H811        H  0.31319775  0.54951654  0.78459658     0.12600
H812        H  0.37878692  0.60354203  0.83948082     0.13200
C813        C  0.34028265  0.38491492  0.82745170    -0.16400
C814        C  0.33864101  0.36516863  0.78738500    -0.31600
H815        H  0.32316648  0.36763022  0.85553637     0.12600
H816        H  0.35714691  0.37893864  0.75853854     0.13200
C817        C  0.50463911  0.46760135  0.80777059    -0.13300
C818        C  0.47860748  0.48181331  0.84334919     0.08800
C819        C  0.49954679  0.50178571  0.87952576    -0.13300
C820        C  0.54565456  0.50583024  0.88091431    -0.13300
C821        C  0.57178393  0.49017808  0.84603640     0.08800
C822        C  0.55061609  0.47187136  0.80901460    -0.13300
H823        H  0.48942267  0.45260421  0.77916498     0.12800
H824        H  0.48043411  0.51240868  0.90776338     0.12800
H825        H  0.56084566  0.51923464  0.91035304     0.12800
H826        H  0.56969200  0.45999119  0.78132839     0.12800
C827        C  0.37043449  0.45567601  0.98531355    -0.13300
C828        C  0.37059042  0.48937234  0.95027320     0.08800
C829        C  0.36614784  0.53420613  0.96159296    -0.13300
C830        C  0.36106641  0.54496916  0.00673019    -0.13300
C831        C  0.36033558  0.51113226  0.04172605     0.08800
C832        C  0.36508336  0.46634520  0.03021882    -0.13300
H833        H  0.37453542  0.42074678  0.97815739     0.12800
H834        H  0.36576003  0.56093454  0.93554096     0.12800
H835        H  0.35824654  0.57995826  0.01412377     0.12800
H836        H  0.36404883  0.43916167  0.05573911     0.12800
C837        C  0.19531922  0.64092477  0.59586159    -0.16400
C838        C  0.19303899  0.68278999  0.61060077    -0.31600
H839        H  0.21264685  0.61514222  0.61582865     0.12600
H840        H  0.17621602  0.70915471  0.59097446     0.13200
C841        C  0.17635748  0.64262571  0.42705188    -0.16400
C842        C  0.18043576  0.68600181  0.41377466    -0.31600
H843        H  0.17812198  0.61660319  0.40290476     0.12600
H844        H  0.17581951  0.71162065  0.43803202     0.13200
C845        C  0.84298409  0.66858097  0.40248730    -0.16400
C846        C  0.80072117  0.67255575  0.39053747    -0.31600
H847        H  0.86958053  0.67718817  0.37905163     0.12600
H848        H  0.77548496  0.66400172  0.41570282     0.13200
C849        C  0.98055090  0.60392471  0.49196051    -0.13300
C850        C  0.96289396  0.64589195  0.50088840     0.08800
C851        C  0.99132313  0.68086492  0.51266988    -0.13300
C852        C  0.03620930  0.67325100  0.51794126    -0.13300
C853        C  0.05339028  0.63077928  0.51089230     0.08800
C854        C  0.02561124  0.59648640  0.49674836    -0.13300
H855        H  0.95950364  0.57620640  0.48325181     0.12800
H856        H  0.97883210  0.71392719  0.51854333     0.12800
H857        H  0.05749539  0.70043596  0.52777270     0.12800
H858        H  0.03845371  0.56345451  0.49122335     0.12800
C859        C  0.19054066  0.29684391  0.38358602    -0.16400
C860        C  0.14772621  0.29035635  0.39293946    -0.31600
H861        H  0.21218447  0.31217102  0.40770846     0.12600
H862        H  0.12514895  0.27751640  0.36818933     0.13200
C863        C  0.15850972  0.27377939  0.55823724    -0.16400
C864        C  0.16004382  0.29237546  0.59815423    -0.31600
H865        H  0.17532949  0.24223890  0.55396512     0.12600
H866        H  0.14377452  0.32387561  0.60356536     0.13200
C867        C  0.13167932  0.45193817  0.45652924    -0.13300
C868        C  0.13353383  0.41893237  0.49199751     0.08800
C869        C  0.14034597  0.43221200  0.53597520    -0.13300
C870        C  0.14580015  0.47765002  0.54417759    -0.13300
C871        C  0.14492618  0.51052145  0.50842551     0.08800
C872        C  0.13794236  0.49703103  0.46455731    -0.13300
H873        H  0.12524285  0.44312415  0.42229820     0.12800
H874        H  0.14209819  0.40758091  0.56393228     0.12800
H875        H  0.15020924  0.48689637  0.57858905     0.12800
H876        H  0.13780263  0.52106648  0.43605939     0.12800
C877        C  0.80516493  0.31006886  0.57273686    -0.16400
C878        C  0.81834582  0.32286822  0.61353499    -0.31600
H879        H  0.78440919  0.28025142  0.57114025     0.12600
H880        H  0.83681697  0.35382738  0.61678671     0.13200
C881        C  0.80282883  0.32824208  0.40207468    -0.16400
C882        C  0.81129944  0.28602539  0.39091616    -0.31600
H883        H  0.79064420  0.35265365  0.37680805     0.12600
H884        H  0.82334237  0.26221159  0.41690007     0.13200
C885        C  0.80650835  0.53353663  0.48885867    -0.13300
C886        C  0.84527989  0.55104805  0.50685856     0.08800
C887        C  0.87772476  0.52169083  0.52378060    -0.13300
C888        C  0.87202702  0.47521761  0.52151972    -0.13300
C889        C  0.83424971  0.45739579  0.50135940     0.08800
C890        C  0.80105717  0.48712713  0.48600119    -0.13300
H891        H  0.78100228  0.55586803  0.47595737     0.12800
H892        H  0.90765488  0.53477818  0.53827629     0.12800
H893        H  0.89802214  0.45356349  0.53395432     0.12800
H894        H  0.77114154  0.47457015  0.47106145     0.12800
C895        C  0.96189744  0.36963795  0.51599360    -0.13300
C896        C  0.93201574  0.33727588  0.50171297     0.08800
C897        C  0.94748019  0.29498022  0.49059927    -0.13300
C898        C  0.99241060  0.28706712  0.48845281    -0.13300
C899        C  0.02245594  0.32107128  0.49817988     0.08800
C900        C  0.00712673  0.36152699  0.51430181    -0.13300
H901        H  0.95075801  0.40228791  0.52477547     0.12800
H902        H  0.92477744  0.26909229  0.48047925     0.12800
H903        H  0.00370982  0.25531802  0.47683656     0.12800
H904        H  0.02997678  0.38821206  0.52195688     0.12800
C905        C  0.83211177  0.70280267  0.60656972    -0.16400
C906        C  0.82204862  0.70578712  0.56271242    -0.31600
H907        H  0.85784612  0.67997126  0.61837123     0.12600
H908        H  0.79671042  0.72883151  0.55042868     0.13200
C909        C  0.68769216  0.61447575  0.81585750    -0.16400
C910        C  0.70798843  0.58039732  0.83908681    -0.31600
H911        H  0.65581511  0.60862165  0.80048570     0.12600
H912        H  0.74122171  0.58559628  0.85153360     0.13200
C913        C  0.59165256  0.78998404  0.69940700    -0.16400
C914        C  0.57529955  0.81849010  0.66692409    -0.31600
H915        H  0.56958108  0.77231040  0.72298757     0.12600
H916        H  0.59794086  0.83651356  0.64400502     0.13200
C917        C  0.66813310  0.78661297  0.89427584    -0.16400
C918        C  0.67609037  0.82910441  0.90408460    -0.31600
H919        H  0.64631034  0.76508607  0.91502843     0.12600
H920        H  0.69885528  0.84978920  0.88348487     0.13200
C921        C  0.81467465  0.87630023  0.69302825    -0.16400
C922        C  0.79426205  0.91578748  0.68401265    -0.31600
H923        H  0.84993762  0.87653479  0.69937534     0.12600
H924        H  0.75855234  0.91572751  0.68104312     0.13200
C925        C  0.89870656  0.69293593  0.81495109    -0.16400
C926        C  0.93799269  0.70882145  0.80039141    -0.31600
H927        H  0.89804806  0.66796141  0.84296499     0.12600
H928        H  0.94029830  0.73385660  0.77260203     0.13200
loop_ 
_geom_bond_atom_site_label_1 
_geom_bond_atom_site_label_2 
_geom_bond_distance 
_geom_bond_site_symmetry_2 
_ccdc_geom_bond_type 
O1           Ni7   1.953       .  S
O1           C22   1.279       .  A
O2          Ni25   1.929       .  S
O2           C11   1.270       .  A
O3           Ni7   1.913       .  S
O3          Ni25   1.914       .  S
O3          Ni19   1.900       .  S
O3           H26   0.966       .  S
C4           O21   1.274       .  A
C4           O13   1.274       .  A
C4          C917   1.444       .  S
O5          Ni24   1.906       .  S
O5           C11   1.263       .  A
O6          Ni24   1.905       .  S
O6            C8   1.266       .  A
Ni7          O10   1.940       .  S
Ni7          O12   1.930       .  S
C8           O18   1.277       .  A
C8          C909   1.496       .  S
O9          Ni25   1.891       .  S
O9           C15   1.270       .  A
O10          C15   1.282       .  A
C11         C925   1.467       .  S
O12          C14   1.274       .  A
O13         Ni24   1.905       .  S
C14          O20   1.277       .  A
C14         C921   1.501       .  S
C15         C905   1.468       .  S
H16          O17   0.967       .  S
O17         Ni25   1.903       .  S
O17         Ni19   1.900       .  S
O17         Ni24   1.902       .  S
O18         Ni19   1.953       .  S
Ni19         O23   1.900       .  S
Ni19         O21   1.909       .  S
O20         Ni25   1.949       .  S
C22          O23   1.269       .  A
C22         C913   1.483       .  S
C27          C28   1.528       .  S
C27          C33   1.538       .  S
C27          C31   1.523       .  S
C27         C881   1.516       .  S
C28          H35   1.086       .  S
C28          C29   1.372       .  D
C29         C889   1.492       .  S
C29          C30   1.554       .  S
C30          C34   1.548       .  S
C30          C32   1.536       .  S
C30          H36   1.107       .  S
C31          H37   1.088       .  S
C31          C32   1.356       .  D
C32         C896   1.472       .  S
C33          H38   1.086       .  S
C33          C34   1.374       .  D
C34         C877   1.492       .  S
C39          C40   1.526       .  S
C39          C45   1.518       .  S
C39          C43   1.529       .  S
C39         C860   1.493       .  S
C40          H47   1.086       .  S
C40          C41   1.372       .  D
C41         C899   1.467       .  S
C41          C42   1.538       .  S
C42          C46   1.543       .  S
C42          C44   1.540       .  S
C42          H48   1.108       .  S
C43          H49   1.086       .  S
C43          C44   1.360       .  D
C44         C868   1.480       .  S
C45          H50   1.088       .  S
C45          C46   1.356       .  D
C46         C863   1.465       .  S
C51          C52   1.538       .  S
C51          C57   1.521       .  S
C51          C55   1.529       .  S
C51         C906   1.505       .  S
C52          H59   1.086       .  S
C52          C53   1.365       .  D
C53         C886   1.474       .  S
C53          C54   1.539       .  S
C54          C58   1.533       .  S
C54          C56   1.540       .  S
C54          H60   1.110       .  S
C55          H61   1.086       .  S
C55          C56   1.367       .  D
C56         C850   1.475       .  S
C57          H62   1.087       .  S
C57          C58   1.366       .  D
C58         C845   1.473       .  S
C63          C64   1.529       .  S
C63          C69   1.531       .  S
C63          C67   1.537       .  S
C63         C837   1.496       .  S
C64          H71   1.086       .  S
C64          C65   1.362       .  D
C65         C853   1.465       .  S
C65          C66   1.531       .  S
C66          C70   1.529       .  S
C66          C68   1.537       .  S
C66          H72   1.109       .  S
C67          H73   1.085       .  S
C67          C68   1.364       .  D
C68         C871   1.482       .  S
C69          H74   1.086       .  S
C69          C70   1.367       .  D
C70         C841   1.466       .  S
C75          C76   1.531       .  S
C75          C81   1.530       .  S
C75          C79   1.537       .  S
C75         C813   1.526       .  S
C76          H83   1.086       .  S
C76          C77   1.375       .  D
C77         C818   1.491       .  S
C77          C78   1.554       .  S
C78          C82   1.551       .  S
C78          C80   1.547       .  S
C78          H84   1.109       .  S
C79          H85   1.086       .  S
C79          C80   1.363       .  D
C80         C828   1.497       .  S
C81          H86   1.086       .  S
C81          C82   1.373       .  D
C82         C809   1.497       .  S
C87          C88   1.537       .  S
C87          C93   1.528       .  S
C87          C91   1.538       .  S
C87         C795   1.528       .  S
C88          H95   1.082       .  S
C88          C89   1.369       .  D
C89         C800   1.494       .  S
C89          C90   1.550       .  S
C90          C94   1.549       .  S
C90          C92   1.552       .  S
C90          H96   1.106       .  S
C91          H97   1.085       .  S
C91          C92   1.375       .  D
C92         C831   1.500       .  S
C93          H98   1.087       .  S
C93          C94   1.363       .  D
C94         C792   1.495       .  S
C99         C100   1.531       .  S
C99         C105   1.533       .  S
C99         C103   1.533       .  S
C99         C777   1.520       .  S
C100        H107   1.087       .  S
C100        C101   1.360       .  D
C101        C782   1.493       .  S
C101        C102   1.546       .  S
C102        C106   1.555       .  S
C102        C104   1.551       .  S
C102        H108   1.110       .  S
C103        H109   1.086       .  S
C103        C104   1.373       .  D
C104        C821   1.493       .  S
C105        H110   1.086       .  S
C105        C106   1.372       .  D
C106        C910   1.491       .  S
C111        C112   1.540       .  S
C111        C117   1.530       .  S
C111        C115   1.536       .  S
C111        C773   1.519       .  S
C112        H119   1.086       .  S
C112        C113   1.363       .  D
C113        C803   1.490       .  S
C113        C114   1.541       .  S
C114        C118   1.545       .  S
C114        C116   1.541       .  S
C114        H120   1.110       .  S
C115        H121   1.086       .  S
C115        C116   1.372       .  D
C116        C785   1.491       .  S
C117        H122   1.085       .  S
C117        C118   1.374       .  D
C118        C769   1.488       .  S
C123        C124   1.531       .  S
C123        C129   1.528       .  S
C123        C127   1.537       .  S
C123        C741   1.523       .  S
C124        H131   1.086       .  S
C124        C125   1.372       .  D
C125        C763   1.502       .  S
C125        C126   1.552       .  S
C126        C130   1.567       .  S
C126        C128   1.550       .  S
C126        H132   1.108       .  S
C127        H133   1.086       .  S
C127        C128   1.367       .  D
C128        C750   1.502       .  S
C129        H134   1.086       .  S
C129        C130   1.369       .  D
C130        C745   1.500       .  S
C135        C136   1.530       .  S
C135        C141   1.528       .  S
C135        C139   1.531       .  S
C135        C727   1.516       .  S
C136        H143   1.087       .  S
C136        C137   1.368       .  D
C137        C732   1.492       .  S
C137        C138   1.552       .  S
C138        C142   1.559       .  S
C138        C140   1.552       .  S
C138        H144   1.110       .  S
C139        H145   1.086       .  S
C139        C140   1.371       .  D
C140        C760   1.499       .  S
C141        H146   1.085       .  S
C141        C142   1.369       .  D
C142        C723   1.499       .  S
C147        C148   1.536       .  S
C147        C153   1.534       .  S
C147        C151   1.546       .  S
C147        C709   1.528       .  S
C148        H155   1.086       .  S
C148        C149   1.360       .  D
C149        C714   1.480       .  S
C149        C150   1.540       .  S
C150        C154   1.546       .  S
C150        C152   1.551       .  S
C150        H156   1.109       .  S
C151        H157   1.085       .  S
C151        C152   1.377       .  D
C152        C753   1.508       .  S
C153        H158   1.083       .  S
C153        C154   1.372       .  D
C154        C914   1.500       .  S
C159        C160   1.533       .  S
C159        C165   1.526       .  S
C159        C163   1.537       .  S
C159        C701   1.515       .  S
C160        H167   1.086       .  S
C160        C161   1.370       .  D
C161        C717   1.485       .  S
C161        C162   1.549       .  S
C162        C166   1.567       .  S
C162        C164   1.545       .  S
C162        H168   1.108       .  S
C163        H169   1.087       .  S
C163        C164   1.364       .  D
C164        C735   1.498       .  S
C165        H170   1.086       .  S
C165        C166   1.366       .  D
C166        C706   1.499       .  S
O171       Ni177   1.921       .  S
O171        C192   1.267       .  A
O172       Ni195   1.893       .  S
O172        C181   1.262       .  A
O173       Ni177   1.911       .  S
O173       Ni195   1.910       .  S
O173       Ni189   1.892       .  S
O173        H196   0.966       .  S
C174        O191   1.266       .  A
C174        O183   1.274       .  A
C174        C689   1.462       .  S
O175       Ni194   1.944       .  S
O175        C181   1.271       .  A
O176       Ni194   1.893       .  S
O176        C178   1.271       .  A
Ni177       O180   1.920       .  S
Ni177       O182   1.904       .  S
C178        O188   1.285       .  A
C178        C814   1.498       .  S
O179       Ni195   1.899       .  S
O179        C185   1.268       .  A
O180        C185   1.277       .  A
C181        C693   1.477       .  S
O182        C184   1.265       .  A
O183       Ni194   1.913       .  S
C184        O190   1.273       .  A
C184        C697   1.494       .  S
C185        C864   1.470       .  S
H186        O187   0.966       .  S
O187       Ni195   1.908       .  S
O187       Ni189   1.935       .  S
O187       Ni194   1.917       .  S
O188       Ni189   1.969       .  S
Ni189       O193   1.938       .  S
Ni189       O191   1.895       .  S
O190       Ni195   1.953       .  S
C192        O193   1.277       .  A
C192        C705   1.487       .  S
O197       Ni203   1.925       .  S
O197        C218   1.270       .  A
O198       Ni221   1.916       .  S
O198        C207   1.269       .  A
O199       Ni203   1.905       .  S
O199       Ni221   1.912       .  S
O199       Ni215   1.903       .  S
O199        H222   0.966       .  S
C200        O217   1.270       .  A
C200        O209   1.279       .  A
C200        C842   1.467       .  S
O201       Ni220   1.940       .  S
O201        C207   1.273       .  A
O202       Ni220   1.912       .  S
O202        C204   1.269       .  A
Ni203       O206   1.923       .  S
Ni203       O208   1.894       .  S
C204        O214   1.272       .  A
C204        C685   1.492       .  S
O205       Ni221   1.901       .  S
O205        C211   1.271       .  A
O206        C211   1.276       .  A
C207        C796   1.486       .  S
O208        C210   1.263       .  A
O209       Ni220   1.930       .  S
C210        O216   1.280       .  A
C210        C746   1.488       .  S
C211        C681   1.457       .  S
H212        O213   0.966       .  S
O213       Ni221   1.897       .  S
O213       Ni215   1.917       .  S
O213       Ni220   1.913       .  S
O214       Ni215   1.943       .  S
Ni215       O219   1.920       .  S
Ni215       O217   1.896       .  S
O216       Ni221   1.963       .  S
C218        O219   1.266       .  A
C218        C678   1.484       .  S
O223       Ni229   1.895       .  S
O223        C244   1.267       .  A
O224       Ni247   1.919       .  S
O224        C233   1.269       .  A
O225       Ni229   1.918       .  S
O225       Ni247   1.919       .  S
O225       Ni241   1.942       .  S
O225        H248   0.966       .  S
C226        O243   1.277       .  A
C226        O235   1.270       .  A
C226        C665   1.489       .  S
O227       Ni246   1.928       .  S
O227        C233   1.271       .  A
O228       Ni246   1.899       .  S
O228        C230   1.269       .  A
Ni229       O232   1.924       .  S
Ni229       O234   1.888       .  S
C230        O240   1.281       .  A
C230        C882   1.476       .  S
O231       Ni247   1.914       .  S
O231        C237   1.266       .  A
O232        C237   1.268       .  A
C233        C673   1.491       .  S
O234        C236   1.266       .  A
O235       Ni246   1.931       .  S
C236        O242   1.280       .  A
C236        C669   1.470       .  S
C237        C728   1.482       .  S
H238        O239   0.965       .  S
O239       Ni247   1.919       .  S
O239       Ni241   1.922       .  S
O239       Ni246   1.918       .  S
O240       Ni241   1.956       .  S
Ni241       O245   1.942       .  S
Ni241       O243   1.944       .  S
O242       Ni247   1.950       .  S
C244        O245   1.276       .  A
C244        C774   1.492       .  S
O249       Ni255   1.919       .  S
O249        C270   1.271       .  A
O250       Ni273   1.922       .  S
O250        C259   1.269       .  A
O251       Ni255   1.902       .  S
O251       Ni273   1.910       .  S
O251       Ni267   1.930       .  S
O251        H274   0.966       .  S
C252        O269   1.284       .  A
C252        O261   1.273       .  A
C252        C654   1.472       .  S
O253       Ni272   1.911       .  S
O253        C259   1.266       .  A
O254       Ni272   1.896       .  S
O254        C256   1.268       .  A
Ni255       O258   1.912       .  S
Ni255       O260   1.917       .  S
C256        O266   1.273       .  A
C256        C778   1.492       .  S
O257       Ni273   1.942       .  S
O257        C263   1.281       .  A
O258        C263   1.276       .  A
C259        C657   1.477       .  S
O260        C262   1.272       .  A
O261       Ni272   1.909       .  S
C262        O268   1.276       .  A
C262        C661   1.499       .  S
C263        C702   1.490       .  S
H264        O265   0.966       .  S
O265       Ni273   1.925       .  S
O265       Ni267   1.911       .  S
O265       Ni272   1.905       .  S
O266       Ni267   1.948       .  S
Ni267       O271   1.925       .  S
Ni267       O269   1.944       .  S
O268       Ni273   1.946       .  S
C270        O271   1.272       .  A
C270        C878   1.484       .  S
C275        C276   1.525       .  S
C275        C281   1.526       .  S
C275        C279   1.523       .  S
C275        C918   1.491       .  S
C276        H283   1.085       .  S
C276        C277   1.367       .  D
C277        C634   1.477       .  S
C277        C278   1.540   1_556  S
C278        C282   1.534       .  S
C278        C280   1.538   1_554  S
C278        H284   1.110       .  S
C279        H285   1.086       .  S
C279        C280   1.362       .  D
C280        C644   1.463   1_556  S
C281        H286   1.084       .  S
C281        C282   1.367   1_556  D
C282        C629   1.476       .  S
C287        C288   1.539       .  S
C287        C293   1.537       .  S
C287        C291   1.529       .  S
C287        C670   1.509       .  S
C288        H295   1.086       .  S
C288        C289   1.365       .  D
C289        C620   1.482       .  S
C289        C290   1.534       .  S
C290        C294   1.537   1_554  S
C290        C292   1.531       .  S
C290        H296   1.108   1_554  S
C291        H297   1.086       .  S
C291        C292   1.360       .  D
C292        C647   1.457       .  S
C293        H298   1.086       .  S
C293        C294   1.370   1_554  D
C294        C658   1.481       .  S
C299        C300   1.536       .  S
C299        C305   1.541       .  S
C299        C303   1.537       .  S
C299        C682   1.505       .  S
C300        H307   1.085       .  S
C300        C301   1.365       .  D
C301        C637   1.480       .  S
C301        C302   1.535   1_554  S
C302        C306   1.530       .  S
C302        C304   1.524   1_556  S
C302        H308   1.108       .  S
C303        H309   1.087       .  S
C303        C304   1.355       .  D
C304        C610   1.463   1_554  S
C305        H310   1.086       .  S
C305        C306   1.373   1_554  D
C306        C606   1.475       .  S
C311        C312   1.534       .  S
C311        C317   1.527   1_556  S
C311        C315   1.529       .  S
C311        C690   1.493       .  S
C312        H319   1.085       .  S
C312        C313   1.372       .  D
C313        C623   1.481       .  S
C313        C314   1.541   1_556  S
C314        C318   1.527       .  S
C314        C316   1.531   1_554  S
C314        H320   1.110       .  S
C315        H321   1.087       .  S
C315        C316   1.355       .  D
C316        C613   1.462       .  S
C317        H322   1.086       .  S
C317        C318   1.366       .  D
C318        C601   1.469       .  S
O323       Ni329   1.915       .  S
O323        C344   1.267       .  A
O324       Ni347   1.950       .  S
O324        C333   1.278       .  A
O325       Ni329   1.909       .  S
O325       Ni347   1.926       .  S
O325       Ni341   1.893       .  S
O325        H348   0.966       .  S
C326        O343   1.262       .  A
C326        O335   1.269       .  A
C326        C605   1.477       .  S
O327       Ni346   1.914       .  S
O327        C333   1.271       .  A
O328       Ni346   1.897       .  S
O328        C330   1.269       .  A
Ni329       O332   1.900       .  S
Ni329       O334   1.900       .  S
C330        O340   1.289       .  A
C330        C710   1.486       .  S
O331       Ni347   1.921       .  S
O331        C337   1.275       .  A
O332        C337   1.273       .  A
C333        C593   1.508       .  S
O334        C336   1.265       .  A
O335       Ni346   1.925       .  S
C336        O342   1.276       .  A
C336        C597   1.479       .  S
C337        C838   1.473       .  S
H338        O339   0.966       .  S
O339       Ni347   1.932       .  S
O339       Ni341   1.933       .  S
O339       Ni346   1.912       .  S
O340       Ni341   1.982       .  S
Ni341       O345   1.946       .  S
Ni341       O343   1.905       .  S
O342       Ni347   1.937       .  S
C344        O345   1.275       .  A
C344        C810   1.499       .  S
C349        C350   1.531       .  S
C349        C355   1.538   1_545  S
C349        C353   1.535       .  S
C349        C662   1.530       .  S
C350        H357   1.086       .  S
C350        C351   1.373       .  D
C351        C584   1.505       .  S
C351        C352   1.556   1_545  S
C352        C356   1.558       .  S
C352        C354   1.541       .  S
C352        H358   1.110       .  S
C353        H359   1.087       .  S
C353        C354   1.359   1_545  D
C354        C574   1.475       .  S
C355        H360   1.086       .  S
C355        C356   1.376       .  D
C356        C922   1.503       .  S
C361        C362   1.523       .  S
C361        C367   1.526       .  S
C361        C365   1.537       .  S
C361        C698   1.527       .  S
C362        H369   1.088       .  S
C362        C363   1.363   1_545  D
C363        C564   1.487       .  S
C363        C364   1.549       .  S
C364        C368   1.559       .  S
C364        C366   1.559   1_565  S
C364        H370   1.110       .  S
C365        H371   1.084       .  S
C365        C366   1.380       .  D
C366        C587   1.504       .  S
C367        H372   1.087       .  S
C367        C368   1.371   1_545  D
C368        C594   1.501       .  S
C373        C374   1.552       .  S
C373        C379   1.544       .  S
C373        C377   1.534       .  S
C373        C549   1.524       .  S
C374        H381   1.082       .  S
C374        C375   1.368       .  D
C375        C554   1.485       .  S
C375        C376   1.535       .  S
C376        C380   1.539   1_565  S
C376        C378   1.537       .  S
C376        H382   1.110   1_565  S
C377        H383   1.086       .  S
C377        C378   1.363       .  D
C378        C577   1.486       .  S
C379        H384   1.085       .  S
C379        C380   1.371   1_565  D
C380        C674   1.492       .  S
C385        C386   1.530       .  S
C385        C391   1.525       .  S
C385        C389   1.537       .  S
C385        C545   1.522       .  S
C386        H393   1.084       .  S
C386        C387   1.374       .  D
C387        C557   1.498   1_545  S
C387        C388   1.551   1_545  S
C388        C392   1.544       .  S
C388        C390   1.542   1_565  S
C388        H394   1.109       .  S
C389        H395   1.086       .  S
C389        C390   1.373       .  D
C390        C567   1.483       .  S
C391        H396   1.087       .  S
C391        C392   1.359   1_545  D
C392        C677   1.475       .  S
O397       Ni403   1.920       .  S
O397        C418   1.271       .  A
O398       Ni421   1.937       .  S
O398        C407   1.274       .  A
O399       Ni403   1.910       .  S
O399       Ni421   1.924       .  S
O399       Ni415   1.934       .  S
O399        H422   0.966       .  S
C400        O417   1.279       .  A
C400        O409   1.274       .  A
C400        C846   1.458       .  S
O401       Ni420   1.914       .  S
O401        C407   1.269       .  A
O402       Ni420   1.917       .  S
O402        C404   1.270       .  A
Ni403       O406   1.929       .  S
Ni403       O408   1.898       .  S
C404        O414   1.269       .  A
C404        C550   1.483       .  S
O405       Ni421   1.895       .  S
O405        C411   1.264       .  A
O406        C411   1.268       .  A
C407        C742   1.488       .  S
O408        C410   1.271       .  A
O409       Ni420   1.903       .  S
C410        O416   1.287       .  A
C410        C770   1.473       .  S
C411        C630   1.458       .  S
H412        O413   0.966       .  S
O413       Ni421   1.888       .  S
O413       Ni415   1.906       .  S
O413       Ni420   1.897       .  S
O414       Ni415   1.923       .  S
Ni415       O419   1.928       .  S
Ni415       O417   1.925       .  S
O416       Ni421   1.973       .  S
C418        O419   1.273       .  A
C418        C541   1.493       .  S
C423        C424   1.532       .  S
C423        C429   1.520   1_655  S
C423        C427   1.535       .  S
C423        C926   1.514       .  S
C424        H431   1.087       .  S
C424        C425   1.364   1_655  D
C425        C525   1.490       .  S
C425        C426   1.543       .  S
C426        C430   1.558       .  S
C426        C428   1.554       .  S
C426        H432   1.109       .  S
C427        H433   1.085       .  S
C427        C428   1.371   1_655  D
C428        C532   1.502       .  S
C429        H434   1.087       .  S
C429        C430   1.364       .  D
C430        C598   1.477       .  S
C435        C436   1.530       .  S
C435        C441   1.551       .  S
C435        C439   1.542       .  S
C435        C686   1.525       .  S
C436        H443   1.087       .  S
C436        C437   1.362       .  D
C437        C512   1.481       .  S
C437        C438   1.533   1_455  S
C438        C442   1.541       .  S
C438        C440   1.544   1_655  S
C438        H444   1.110       .  S
C439        H445   1.086       .  S
C439        C440   1.371       .  D
C440        C535   1.500       .  S
C441        H446   1.084       .  S
C441        C442   1.376   1_455  D
C442        C542   1.489       .  S
C447        C448   1.538       .  S
C447        C453   1.524   1_655  S
C447        C451   1.531       .  S
C447        C653   1.520       .  S
C448        H455   1.086       .  S
C448        C449   1.370   1_655  D
C449        C502   1.496       .  S
C449        C450   1.549       .  S
C450        C454   1.550       .  S
C450        C452   1.544       .  S
C450        H456   1.110       .  S
C451        H457   1.086       .  S
C451        C452   1.369   1_655  D
C452        C522   1.487       .  S
C453        H458   1.083       .  S
C453        C454   1.371       .  D
C454        C694   1.496       .  S
C459        C460   1.533       .  S
C459        C465   1.540       .  S
C459        C463   1.529       .  S
C459        C498   1.526       .  S
C460        H467   1.085       .  S
C460        C461   1.372       .  D
C461        C505   1.500       .  S
C461        C462   1.553   1_455  S
C462        C466   1.548       .  S
C462        C464   1.537   1_655  S
C462        H468   1.109       .  S
C463        H469   1.087       .  S
C463        C464   1.360       .  D
C464        C515   1.480       .  S
C465        H470   1.085       .  S
C465        C466   1.381   1_455  D
C466        C666   1.504       .  S
O471       Ni477   1.926       .  S
O471        C492   1.272       .  A
O472       Ni495   1.906       .  S
O472        C481   1.267       .  A
O473       Ni477   1.902       .  S
O473       Ni495   1.904       .  S
O473       Ni489   1.886       .  S
O473        H496   0.966       .  S
C474        O491   1.262       .  A
C474        O483   1.276       .  A
C474        C602   1.457       .  S
O475       Ni494   1.937       .  S
O475        C481   1.274       .  A
O476       Ni494   1.909       .  S
O476        C478   1.270       .  A
Ni477       O480   1.904       .  S
Ni477       O482   1.919       .  S
C478        O488   1.282       .  A
C478        C724   1.488       .  S
O479       Ni495   1.901       .  S
O479        C485   1.271       .  A
O480        C485   1.273       .  A
C481        C546   1.474       .  S
O482        C484   1.272       .  A
O483       Ni494   1.936       .  S
C484        O490   1.272       .  A
C484        C497   1.494       .  S
C485        C859   1.439       .  S
H486        O487   0.966       .  S
O487       Ni495   1.913       .  S
O487       Ni489   1.921       .  S
O487       Ni494   1.917       .  S
O488       Ni489   1.957       .  S
Ni489       O493   1.931       .  S
Ni489       O491   1.873       .  S
O490       Ni495   1.937       .  S
C492        O493   1.271       .  A
C492        C791   1.494       .  S
C497        H499   1.086       .  S
C497        C498   1.348       .  D
C498        H500   1.087       .  S
C501        C502   1.403       .  A
C501        C506   1.402   1_556  A
C501        H507   1.082       .  S
C502        C503   1.409   1_455  A
C503        C504   1.402   1_556  A
C503        H508   1.082       .  S
C504        C505   1.405   1_655  A
C504        H509   1.081       .  S
C505        C506   1.411       .  A
C506        H510   1.081       .  S
C511        C512   1.406   1_655  A
C511        C516   1.404       .  A
C511        H517   1.083       .  S
C512        C513   1.403       .  A
C513        C514   1.391       .  A
C513        H518   1.083       .  S
C514        C515   1.403       .  A
C514        H519   1.083       .  S
C515        C516   1.404   1_455  A
C516        H520   1.083       .  S
C521        C522   1.407       .  A
C521        C526   1.410       .  A
C521        H527   1.083       .  S
C522        C523   1.402   1_455  A
C523        C524   1.391       .  A
C523        H528   1.083       .  S
C524        C525   1.405   1_655  A
C524        H529   1.083       .  S
C525        C526   1.406       .  A
C526        H530   1.082       .  S
C531        C532   1.410   1_655  A
C531        C536   1.398   1_556  A
C531        H537   1.082       .  S
C532        C533   1.407       .  A
C533        C534   1.408   1_556  A
C533        H538   1.082       .  S
C534        C535   1.410       .  A
C534        H539   1.082       .  S
C535        C536   1.404   1_455  A
C536        H540   1.082       .  S
C541        H543   1.086       .  S
C541        C542   1.352       .  D
C542        H544   1.086       .  S
C545        H547   1.087       .  S
C545        C546   1.349       .  D
C546        H548   1.086       .  S
C549        H551   1.087       .  S
C549        C550   1.348       .  D
C550        H552   1.081       .  S
C553        C554   1.400   1_545  A
C553        C558   1.393   1_655  A
C553        H559   1.083       .  S
C554        C555   1.405       .  A
C555        C556   1.405   1_655  A
C555        H560   1.083       .  S
C556        C557   1.409       .  A
C556        H561   1.081       .  S
C557        C558   1.409   1_565  A
C558        H562   1.081       .  S
C563        C564   1.406       .  A
C563        C568   1.394   1_565  A
C563        H569   1.083   1_565  S
C564        C565   1.406       .  A
C565        C566   1.408       .  A
C565        H570   1.083       .  S
C566        C567   1.406   1_565  A
C566        H571   1.083       .  S
C567        C568   1.400       .  A
C568        H572   1.083       .  S
C573        C574   1.402       .  A
C573        C578   1.402       .  A
C573        H579   1.083   1_565  S
C574        C575   1.402       .  A
C575        C576   1.397       .  A
C575        H580   1.083       .  S
C576        C577   1.405       .  A
C576        H581   1.083       .  S
C577        C578   1.407       .  A
C578        H582   1.083       .  S
C583        C584   1.409   1_565  A
C583        C588   1.416   1_655  A
C583        H589   1.083       .  S
C584        C585   1.407       .  A
C585        C586   1.396   1_655  A
C585        H590   1.083       .  S
C586        C587   1.406       .  A
C586        H591   1.082       .  S
C587        C588   1.411   1_545  A
C588        H592   1.083       .  S
C593        H595   1.085       .  S
C593        C594   1.358       .  D
C594        H596   1.087       .  S
C597        H599   1.086       .  S
C597        C598   1.338       .  D
C598        H600   1.087       .  S
C601        H603   1.086       .  S
C601        C602   1.335       .  D
C602        H604   1.087       .  S
C605        H607   1.087       .  S
C605        C606   1.341       .  D
C606        H608   1.086       .  S
C609        C610   1.403   1_554  A
C609        C614   1.389   1_564  A
C609        H615   1.083       .  S
C610        C611   1.399       .  A
C611        C612   1.394   1_565  A
C611        H616   1.083       .  S
C612        C613   1.404       .  A
C612        H617   1.083       .  S
C613        C614   1.397       .  A
C614        H618   1.084       .  S
C619        C620   1.406   1_556  A
C619        C624   1.397       .  A
C619        H625   1.082       .  S
C620        C621   1.403       .  A
C621        C622   1.392       .  A
C621        H626   1.082       .  S
C622        C623   1.404   1_554  A
C622        H627   1.082       .  S
C623        C624   1.404       .  A
C624        H628   1.082       .  S
C629        H631   1.086       .  S
C629        C630   1.340       .  D
C630        H632   1.084       .  S
C633        C634   1.402       .  A
C633        C638   1.386       .  A
C633        H639   1.082       .  S
C634        C635   1.404   1_556  A
C635        C636   1.396       .  A
C635        H640   1.082       .  S
C636        C637   1.407       .  A
C636        H641   1.082       .  S
C637        C638   1.402   1_554  A
C638        H642   1.080       .  S
C643        C644   1.405       .  A
C643        C648   1.393   1_565  A
C643        H649   1.083   1_554  S
C644        C645   1.399       .  A
C645        C646   1.391   1_565  A
C645        H650   1.083       .  S
C646        C647   1.401       .  A
C646        H651   1.083       .  S
C647        C648   1.397       .  A
C648        H652   1.083       .  S
C653        H655   1.087       .  S
C653        C654   1.339       .  D
C654        H656   1.088       .  S
C657        H659   1.084       .  S
C657        C658   1.350       .  D
C658        H660   1.087       .  S
C661        H663   1.086       .  S
C661        C662   1.353       .  D
C662        H664   1.087       .  S
C665        H667   1.086       .  S
C665        C666   1.349       .  D
C666        H668   1.086       .  S
C669        H671   1.088       .  S
C669        C670   1.338       .  D
C670        H672   1.087       .  S
C673        H675   1.085       .  S
C673        C674   1.352       .  D
C674        H676   1.086       .  S
C677        H679   1.087       .  S
C677        C678   1.343       .  D
C678        H680   1.086       .  S
C681        H683   1.087       .  S
C681        C682   1.347       .  D
C682        H684   1.087       .  S
C685        H687   1.084       .  S
C685        C686   1.350       .  D
C686        H688   1.088       .  S
C689        H691   1.087       .  S
C689        C690   1.338       .  D
C690        H692   1.087       .  S
C693        H695   1.083       .  S
C693        C694   1.350       .  D
C694        H696   1.086       .  S
C697        H699   1.084       .  S
C697        C698   1.352       .  D
C698        H700   1.088       .  S
C701        H703   1.086       .  S
C701        C702   1.351       .  D
C702        H704   1.086       .  S
C705        H707   1.084       .  S
C705        C706   1.339       .  D
C706        H708   1.087       .  S
C709        H711   1.087       .  S
C709        C710   1.344       .  D
C710        H712   1.088       .  S
C713        C714   1.403       .  A
C713        C718   1.401   1_565  A
C713        H719   1.083       .  S
C714        C715   1.402       .  A
C715        C716   1.401   1_565  A
C715        H720   1.083       .  S
C716        C717   1.406       .  A
C716        H721   1.083       .  S
C717        C718   1.405       .  A
C718        H722   1.083       .  S
C723        H725   1.086       .  S
C723        C724   1.358       .  D
C724        H726   1.085       .  S
C727        H729   1.087       .  S
C727        C728   1.349       .  D
C728        H730   1.087       .  S
C731        C732   1.403       .  A
C731        C736   1.396       .  A
C731        H737   1.084       .  S
C732        C733   1.408       .  A
C733        C734   1.414       .  A
C733        H738   1.083       .  S
C734        C735   1.408       .  A
C734        H739   1.083       .  S
C735        C736   1.407       .  A
C736        H740   1.083       .  S
C741        H743   1.088       .  S
C741        C742   1.352       .  D
C742        H744   1.086       .  S
C745        H747   1.087       .  S
C745        C746   1.341       .  D
C746        H748   1.084       .  S
C749        C750   1.407       .  A
C749        C754   1.400       .  A
C749        H755   1.083       .  S
C750        C751   1.406       .  A
C751        C752   1.411       .  A
C751        H756   1.083       .  S
C752        C753   1.413       .  A
C752        H757   1.082       .  S
C753        C754   1.407       .  A
C754        H758   1.081       .  S
C759        C760   1.409       .  A
C759        C764   1.414   1_545  A
C759        H765   1.083       .  S
C760        C761   1.405       .  A
C761        C762   1.394   1_545  A
C761        H766   1.083       .  S
C762        C763   1.407       .  A
C762        H767   1.082       .  S
C763        C764   1.410       .  A
C764        H768   1.083       .  S
C769        H771   1.086       .  S
C769        C770   1.343       .  D
C770        H772   1.085       .  S
C773        H775   1.088       .  S
C773        C774   1.355       .  D
C774        H776   1.085       .  S
C777        H779   1.087       .  S
C777        C778   1.349       .  D
C778        H780   1.086       .  S
C781        C782   1.405       .  A
C781        C786   1.410   1_556  A
C781        H787   1.083       .  S
C782        C783   1.408       .  A
C783        C784   1.393   1_556  A
C783        H788   1.083       .  S
C784        C785   1.402       .  A
C784        H789   1.083       .  S
C785        C786   1.410       .  A
C786        H790   1.083       .  S
C791        H793   1.085       .  S
C791        C792   1.349       .  D
C792        H794   1.088       .  S
C795        H797   1.087       .  S
C795        C796   1.352       .  D
C796        H798   1.082       .  S
C799        C800   1.404       .  A
C799        C804   1.401       .  A
C799        H805   1.082       .  S
C800        C801   1.411       .  A
C801        C802   1.399       .  A
C801        H806   1.082       .  S
C802        C803   1.401       .  A
C802        H807   1.083       .  S
C803        C804   1.409       .  A
C804        H808   1.083       .  S
C809        H811   1.087       .  S
C809        C810   1.357       .  D
C810        H812   1.085       .  S
C813        H815   1.087       .  S
C813        C814   1.357       .  D
C814        H816   1.085       .  S
C817        C818   1.405       .  A
C817        C822   1.400       .  A
C817        H823   1.083       .  S
C818        C819   1.405       .  A
C819        C820   1.403       .  A
C819        H824   1.083       .  S
C820        C821   1.407       .  A
C820        H825   1.082       .  S
C821        C822   1.407       .  A
C822        H826   1.083       .  S
C827        C828   1.410       .  A
C827        C832   1.399   1_556  A
C827        H833   1.082       .  S
C828        C829   1.403       .  A
C829        C830   1.405   1_556  A
C829        H834   1.083       .  S
C830        C831   1.412       .  A
C830        H835   1.082       .  S
C831        C832   1.405       .  A
C832        H836   1.082       .  S
C837        H839   1.087       .  S
C837        C838   1.347       .  D
C838        H840   1.086       .  S
C841        H843   1.086       .  S
C841        C842   1.337       .  D
C842        H844   1.088       .  S
C845        H847   1.086       .  S
C845        C846   1.335       .  D
C846        H848   1.089       .  S
C849        C850   1.404       .  A
C849        C854   1.393   1_655  A
C849        H855   1.081       .  S
C850        C851   1.405       .  A
C851        C852   1.390   1_655  A
C851        H856   1.082       .  S
C852        C853   1.400       .  A
C852        H857   1.083       .  S
C853        C854   1.400       .  A
C854        H858   1.083       .  S
C859        H861   1.088       .  S
C859        C860   1.338       .  D
C860        H862   1.087       .  S
C863        H865   1.088       .  S
C863        C864   1.337       .  D
C864        H866   1.085       .  S
C867        C868   1.406       .  A
C867        C872   1.389       .  A
C867        H873   1.082       .  S
C868        C869   1.401       .  A
C869        C870   1.397       .  A
C869        H874   1.082       .  S
C870        C871   1.409       .  A
C870        H875   1.082       .  S
C871        C872   1.401       .  A
C872        H876   1.081       .  S
C877        H879   1.087       .  S
C877        C878   1.350       .  D
C878        H880   1.084       .  S
C881        H883   1.086       .  S
C881        C882   1.346       .  D
C882        H884   1.088       .  S
C885        C886   1.400       .  A
C885        C890   1.399       .  A
C885        H891   1.083       .  S
C886        C887   1.400       .  A
C887        C888   1.400       .  A
C887        H892   1.083       .  S
C888        C889   1.406       .  A
C888        H893   1.078       .  S
C889        C890   1.409       .  A
C890        H894   1.082       .  S
C895        C896   1.399       .  A
C895        C900   1.397   1_655  A
C895        H901   1.079       .  S
C896        C897   1.406       .  A
C897        C898   1.387       .  A
C897        H902   1.084       .  S
C898        C899   1.398   1_655  A
C898        H903   1.083   1_655  S
C899        C900   1.405       .  A
C900        H904   1.083       .  S
C905        H907   1.087       .  S
C905        C906   1.338       .  D
C906        H908   1.087       .  S
C909        H911   1.086       .  S
C909        C910   1.353       .  D
C910        H912   1.086       .  S
C913        H915   1.082       .  S
C913        C914   1.351       .  D
C914        H916   1.086       .  S
C917        H919   1.087       .  S
C917        C918   1.335       .  D
C918        H920   1.088       .  S
C921        H923   1.086       .  S
C921        C922   1.351       .  D
C922        H924   1.087       .  S
C925        H927   1.088       .  S
C925        C926   1.341       .  D
C926        H928   1.086       .  S
