geometry optimzed in LAMMPS
_audit_creation_date              2020-11-30 
_audit_creation_method            'lammps2cif' 
_symmetry_space_group_name_H-M    'P1' 
_symmetry_Int_Tables_number       1 
_symmetry_cell_setting            triclinic 
loop_ 
_symmetry_equiv_pos_as_xyz 
  x,y,z 
_cell_length_a                    87.26151883 
_cell_length_b                    50.54775588886404 
_cell_length_c                    26.690530805939197 
_cell_angle_alpha                 89.89323185788476 
_cell_angle_beta                  90.21946461782001 
_cell_angle_gamma                 90.21891223926944 
loop_ 
_atom_site_label 
_atom_site_type_symbol 
_atom_site_fract_x 
_atom_site_fract_y 
_atom_site_fract_z 
_atom_site_charge 
O1          O  0.70058330  0.57436473  0.22743384    -0.81500
O2          O  0.69336783  0.45448912  0.17902864    -0.66200
O3          O  0.68489644  0.52775588  0.20073606    -1.12800
C4          C  0.69000559  0.50181015  0.37260985     1.05400
O5          O  0.67605868  0.44584612  0.23588170    -0.79400
O6          O  0.66375571  0.47744724  0.30500789    -0.67000
Ni7        Ni  0.69569604  0.55501714  0.16680726     1.34900
C8          C  0.65774757  0.49973487  0.29598300     0.84100
O9          O  0.68625564  0.49507881  0.11679177    -0.80000
O10         O  0.69149149  0.53833616  0.10349872    -0.90200
C11         C  0.68526978  0.43778967  0.20283221     0.83700
O12         O  0.71561913  0.53961079  0.16695273    -0.68400
O13         O  0.69004510  0.47798130  0.35691060    -0.87700
C14         C  0.72009249  0.51578943  0.16524938     0.84500
C15         C  0.68821975  0.51506485  0.08800118     1.06100
H16         H  0.70372777  0.48908469  0.26477727     0.37900
O17         O  0.69284477  0.49034238  0.25849072    -1.10400
O18         O  0.66520750  0.51907099  0.27739970    -0.67000
Ni19       Ni  0.68699758  0.52575472  0.27190798     1.26300
O20         O  0.71122606  0.49637050  0.17498190    -0.67300
O21         O  0.68892156  0.52205947  0.34380907    -0.79600
C22         C  0.69130776  0.57988441  0.26260521     0.83900
O23         O  0.68237432  0.56238883  0.28052348    -0.66700
Ni24       Ni  0.68346470  0.46256509  0.29529818     1.27400
Ni25       Ni  0.68958444  0.49168338  0.18746620     1.26100
H26         H  0.67420135  0.53026974  0.19254237     0.38400
O27         O  0.70050545  0.57485510  0.72795324    -0.81500
O28         O  0.69476778  0.45388691  0.67870156    -0.66200
O29         O  0.68568453  0.52697309  0.70232203    -1.12800
C30         C  0.69040966  0.50031290  0.87385398     1.05400
O31         O  0.67766937  0.44402494  0.73547710    -0.79400
O32         O  0.66395373  0.47573077  0.79957239    -0.67000
Ni33       Ni  0.69624416  0.55461397  0.66810969     1.34900
C34         C  0.65828434  0.49833396  0.79096942     0.84100
O35         O  0.68723874  0.49466222  0.61702309    -0.80000
O36         O  0.69265726  0.53774762  0.60479018    -0.90200
C37         C  0.68730355  0.43661822  0.70332487     0.83700
O38         O  0.71637068  0.53985196  0.67003146    -0.68400
O39         O  0.68935907  0.47660472  0.85819553    -0.87700
C40         C  0.72090300  0.51598528  0.66852145     0.84500
C41         C  0.68941115  0.51467976  0.58843104     1.06100
H42         H  0.70452439  0.48739820  0.76576186     0.37900
O43         O  0.69366392  0.48900064  0.75927985    -1.10400
O44         O  0.66632424  0.51840511  0.77927027    -0.67000
Ni45       Ni  0.68809936  0.52447072  0.77359127     1.26300
O46         O  0.71204077  0.49642757  0.67676668    -0.67300
O47         O  0.69024844  0.52053680  0.84500119    -0.79600
C48         C  0.69199003  0.57888897  0.76580172     0.83900
O49         O  0.68365248  0.56077023  0.78417622    -0.66700
Ni50       Ni  0.68393039  0.46115768  0.79548138     1.27400
Ni51       Ni  0.69049244  0.49094410  0.68804721     1.26100
H52         H  0.67495376  0.52936397  0.69454743     0.38400
O53         O  0.54850362  0.57151965  0.39396024    -0.81500
O54         O  0.55410997  0.45339559  0.44151460    -0.66200
O55         O  0.56452628  0.52571522  0.41904720    -1.12800
C56         C  0.56223937  0.49970750  0.24837676     1.05400
O57         O  0.57303004  0.44312331  0.39095651    -0.79400
O58         O  0.58838724  0.47619979  0.33248128    -0.67000
Ni59       Ni  0.55479506  0.55357794  0.45417954     1.34900
C60         C  0.59302230  0.49990493  0.33472228     0.84100
O61         O  0.56069610  0.49392006  0.50403225    -0.80000
O62         O  0.56058617  0.53799204  0.51673608    -0.90200
C63         C  0.56291908  0.43633064  0.42234717     0.83700
O64         O  0.53485638  0.53827026  0.46199119    -0.68400
O65         O  0.56512880  0.47650328  0.26478440    -0.87700
C66         C  0.52937871  0.51513448  0.45628961     0.84500
C67         C  0.56113403  0.51418194  0.53266707     1.06100
H68         H  0.54662584  0.48510461  0.35236827     0.37900
O69         O  0.55725947  0.48778959  0.36134105    -1.10400
O70         O  0.58413053  0.51949161  0.34069632    -0.67000
Ni71       Ni  0.56222269  0.52367289  0.34780962     1.26300
O72         O  0.53719333  0.49613235  0.43850846    -0.67300
O73         O  0.56004748  0.51968620  0.27675974    -0.79600
C74         C  0.55765911  0.57783381  0.35893154     0.83900
O75         O  0.56600554  0.56047417  0.33840340    -0.66700
Ni76       Ni  0.56859102  0.46070903  0.32912767     1.27400
Ni77       Ni  0.55890747  0.49010052  0.43265619     1.26100
H78         H  0.57530767  0.52733458  0.42680259     0.38400
O79         O  0.54968873  0.57189884  0.89417962    -0.81500
O80         O  0.55673920  0.45267187  0.94009227    -0.66200
O81         O  0.56548086  0.52590781  0.92048424    -1.12800
C82         C  0.56046871  0.50183598  0.74819954     1.05400
O83         O  0.57418458  0.44436781  0.88329481    -0.79400
O84         O  0.58659181  0.47678412  0.81598155    -0.67000
Ni85       Ni  0.55468157  0.55273864  0.95477027     1.34900
C86         C  0.59286142  0.49878638  0.82613669     0.84100
O87         O  0.56388820  0.49265124  0.00338135    -0.80000
O88         O  0.55909408  0.53581875  0.01759391    -0.90200
C89         C  0.56514577  0.43633962  0.91700329     0.83700
O90         O  0.53466664  0.53726837  0.95603700    -0.68400
O91         O  0.56034949  0.47786548  0.76330780    -0.87700
C92         C  0.53016956  0.51332923  0.95664545     0.84500
C93         C  0.56214029  0.51237911  0.03272586     1.06100
H94         H  0.54661394  0.48789273  0.85509621     0.37900
O95         O  0.55749006  0.48909975  0.86167518    -1.10400
O96         O  0.58535574  0.51814140  0.84394349    -0.67000
Ni97       Ni  0.56353540  0.52458794  0.84935317     1.26300
O98         O  0.53896174  0.49433874  0.94474557    -0.67300
O99         O  0.56169782  0.52170790  0.77761616    -0.79600
C100        C  0.55915738  0.57816202  0.85989206     0.83900
O101        O  0.56827084  0.56115703  0.84196102    -0.66700
Ni102      Ni  0.56683327  0.46177352  0.82441951     1.27400
Ni103      Ni  0.56061590  0.48985025  0.93262801     1.26100
H104        H  0.57615643  0.52836400  0.92897892     0.38400
O105        O  0.70150112  0.68878003  0.39013075    -0.81500
O106        O  0.69702655  0.80712060  0.44292021    -0.66200
O107        O  0.68591572  0.73539622  0.41729647    -1.12800
C108        C  0.68834015  0.76204743  0.24700953     1.05400
O109        O  0.67985023  0.82076382  0.38795261    -0.79400
O110        O  0.66290051  0.78732259  0.33453687    -0.67000
Ni111      Ni  0.69559316  0.70683759  0.45126363     1.34900
C112        C  0.65782475  0.76382407  0.33625956     0.84100
O113        O  0.68919118  0.76637611  0.50317569    -0.80000
O114        O  0.69023941  0.72220765  0.51473679    -1.35000
C115        C  0.68992893  0.82564363  0.42085398     0.83700
O116        O  0.71575255  0.72132342  0.45921446    -0.68400
O117        O  0.68521005  0.78496492  0.26360633    -0.87700
C118        C  0.72111415  0.74471272  0.45674670     0.84500
C119        C  0.68895489  0.74582965  0.53127423     1.06100
H120        H  0.70457760  0.77592835  0.35295303     0.37900
O121        O  0.69385915  0.77371555  0.36090823    -1.10400
O122        O  0.66645609  0.74367967  0.33983697    -0.67000
Ni123      Ni  0.68828686  0.73806252  0.34641360     1.26300
O124        O  0.71325245  0.76411583  0.44059687    -0.67300
O125        O  0.69067040  0.74209308  0.27540316    -0.79600
C126        C  0.69270813  0.68394675  0.35294907     0.83900
O127        O  0.68383120  0.70161768  0.33589528    -0.66700
Ni128      Ni  0.68299166  0.80145377  0.32757469     1.27400
Ni129      Ni  0.69167626  0.77079032  0.43222365     1.26100
H130        H  0.67512735  0.73377603  0.42483822     0.38400
O131        O  0.70139270  0.68718995  0.89373305    -0.81500
O132        O  0.69747771  0.80721287  0.94237447    -0.66200
O133        O  0.68649924  0.73505906  0.91755116    -1.12800
C134        C  0.69009586  0.76059716  0.74655865     1.05400
O135        O  0.68067683  0.82008835  0.88559248    -0.79400
O136        O  0.66436111  0.78660921  0.83028721    -0.67000
Ni137      Ni  0.69564975  0.70653077  0.95327949     1.34900
C138        C  0.65909479  0.76325430  0.83283427     0.84100
O139        O  0.68903268  0.76676408  0.00307615    -0.80000
O140        O  0.69035335  0.72279489  0.01560949    -0.90200
C141        C  0.69036823  0.82552183  0.91943697     0.83700
O142        O  0.71599489  0.72038343  0.96072106    -0.68400
O143        O  0.68743154  0.78382728  0.76247769    -0.87700
C144        C  0.72155304  0.74366416  0.95859945     0.84500
C145        C  0.68874248  0.74638382  0.03163436     1.06100
H146        H  0.70580516  0.77483522  0.85383169     0.37900
O147        O  0.69500867  0.77288047  0.86088188    -1.10400
O148        O  0.66753196  0.74300567  0.83852995    -0.67000
Ni149      Ni  0.68930313  0.73720118  0.84663895     1.26300
O150        O  0.71379371  0.76347573  0.94326605    -0.67300
O151        O  0.69193833  0.74066829  0.77542203    -0.79600
C152        C  0.69299868  0.68279037  0.85541998     0.83900
O153        O  0.68472688  0.70083787  0.83662521    -0.66700
Ni154      Ni  0.68456207  0.80056255  0.82589224     1.27400
Ni155      Ni  0.69225573  0.77057697  0.93220545     1.26100
H156        H  0.67565180  0.73366844  0.92426881     0.38400
O157        O  0.54936165  0.69059990  0.24994746    -0.81500
O158        O  0.55575153  0.80900582  0.19717911    -0.66200
O159        O  0.56493767  0.73657170  0.22323518    -1.12800
C160        C  0.55964310  0.76362695  0.39378992     1.05400
O161        O  0.57259821  0.82004205  0.25515079    -0.79400
O162        O  0.58627729  0.78827206  0.32216258    -0.67000
Ni163      Ni  0.55502267  0.70842315  0.18905138     1.34900
C164        C  0.59201575  0.76555461  0.31520059     0.84100
O165        O  0.56322314  0.76782978  0.13747806    -0.80000
O166        O  0.56004377  0.72397892  0.12569602    -0.90200
C167        C  0.56330603  0.82656228  0.22081785     0.83700
O168        O  0.53499477  0.72298264  0.18351518    -0.68400
O169        O  0.56049065  0.78732908  0.37763027    -0.87700
C170        C  0.52999569  0.74651225  0.18322341     0.84500
C171        C  0.56240741  0.74737848  0.10930680     1.06100
H172        H  0.54580484  0.77602861  0.28498191     0.37900
O173        O  0.55667985  0.77456760  0.27895879    -1.10400
O174        O  0.58412761  0.74573381  0.30087385    -0.67000
Ni175      Ni  0.56239133  0.73923100  0.29415196     1.26300
O176        O  0.53825620  0.76632801  0.19576784    -0.67300
O177        O  0.56009388  0.74338329  0.36523455    -0.79600
C178        C  0.55871114  0.68502121  0.28496144     0.83900
O179        O  0.56695089  0.70282719  0.30505647    -0.66700
Ni180      Ni  0.56621156  0.80267296  0.31505940     1.27400
Ni181      Ni  0.55989025  0.77215863  0.20795700     1.26100
H182        H  0.57572435  0.73454593  0.21616795     0.38400
O183        O  0.55000274  0.69056479  0.75000423    -0.81500
O184        O  0.55461697  0.80963167  0.70100363    -0.66200
O185        O  0.56497894  0.73726234  0.72242302    -1.12800
C186        C  0.56180272  0.76303754  0.89405198     1.05400
O187        O  0.57298664  0.82001523  0.75405908    -0.79400
O188        O  0.58744707  0.78829892  0.81919106    -0.67000
Ni189      Ni  0.55470580  0.70929073  0.68887080     1.34900
C190        C  0.59321562  0.76571998  0.81139050     0.84100
O191        O  0.56158733  0.76954765  0.63853607    -0.80000
O192        O  0.55872511  0.72579509  0.62541285    -0.90200
C193        C  0.56320305  0.82685260  0.72142197     0.83700
O194        O  0.53447836  0.72336407  0.68661536    -0.68400
O195        O  0.56247737  0.78674992  0.87785709    -0.87700
C196        C  0.52937319  0.74681368  0.68809400     0.84500
C197        C  0.56053205  0.74950992  0.60959919     1.06100
H198        H  0.54653977  0.77569338  0.78871661     0.37900
O199        O  0.55729235  0.77444298  0.78064339    -1.10400
O200        O  0.58527365  0.74586880  0.79756202    -0.67000
Ni201      Ni  0.56348094  0.73913877  0.79367668     1.26300
O202        O  0.53766101  0.76653572  0.70077976    -0.67300
O203        O  0.56207383  0.74273168  0.86539811    -0.79600
C204        C  0.55964946  0.68506304  0.78430466     0.83900
O205        O  0.56843298  0.70273195  0.80225338    -0.66700
Ni206      Ni  0.56733546  0.80248955  0.81489268     1.27400
Ni207      Ni  0.55933821  0.77285466  0.70947983     1.26100
H208        H  0.57565755  0.73560583  0.71351558     0.38400
O209        O  0.69972111  0.07114191  0.49159930    -0.81500
O210        O  0.69535740  0.95487797  0.43578007    -0.66200
O211        O  0.68392156  0.02618787  0.46051749    -1.12800
C212        C  0.68540672  0.99826542  0.63121960     1.05400
O213        O  0.67690168  0.94287084  0.48653741    -0.79400
O214        O  0.66044330  0.97348430  0.54752675    -0.67000
Ni215      Ni  0.69387467  0.05499161  0.42888321     1.34900
C216        C  0.65510501  0.99665548  0.54280777     0.84100
O217        O  0.68850698  0.99630099  0.37449000    -0.80000
O218        O  0.68854715  0.04072466  0.36456886    -0.90200
C219        C  0.68764732  0.93675563  0.45701946     0.83700
O220        O  0.71393844  0.04062990  0.42044484    -0.68400
O221        O  0.68398276  0.97475655  0.61441318    -0.87700
C222        C  0.71951121  0.01757122  0.42412023     0.84500
C223        C  0.68798659  0.01717839  0.34711903     1.06100
H224        H  0.70194761  0.98650632  0.52705213     0.37900
O225        O  0.69129051  0.98812132  0.51762677    -1.10400
O226        O  0.66343164  0.01689579  0.53454107    -0.67000
Ni227      Ni  0.68523718  0.02332850  0.53178835     1.26300
O228        O  0.71174423  0.99814408  0.44110704    -0.67300
O229        O  0.68635066  0.01881867  0.60330279    -0.79600
C230        C  0.69019335  0.07693338  0.52587190     0.83900
O231        O  0.68067143  0.05981212  0.54159440    -0.66700
Ni232      Ni  0.68074456  0.95966695  0.54931891     1.27400
Ni233      Ni  0.69001500  0.99119770  0.44585759     1.26100
H234        H  0.67324632  0.02756629  0.45116221     0.38400
O235        O  0.69759231  0.07505355  0.97752985    -0.81500
O236        O  0.69491624  0.95519558  0.93814121    -0.66200
O237        O  0.68263572  0.02658575  0.95954305    -1.12800
C238        C  0.68934874  0.00411354  0.13119696     1.05400
O239        O  0.67870867  0.94226140  0.99618931    -0.79400
O240        O  0.66295377  0.97564330  0.05424726    -0.67000
Ni241      Ni  0.69052998  0.05495373  0.92031402     1.34900
C242        C  0.65721082  0.99865631  0.05208157     0.84100
O243        O  0.68533741  0.99371999  0.87540973    -0.80000
O244        O  0.68387407  0.03753129  0.86017527    -0.90200
C245        C  0.68827269  0.93678291  0.96219664     0.83700
O246        O  0.71081397  0.04198525  0.90841841    -0.68400
O247        O  0.68725845  0.98042233  0.11638564    -0.87700
C248        C  0.71699557  0.01942742  0.91392681     0.84500
C249        C  0.68363129  0.01344164  0.84578867     1.06100
H250        H  0.70350732  0.98931548  0.02327464     0.37900
O251        O  0.69259907  0.99047493  0.01729548    -1.10400
O252        O  0.66518274  0.01917136  0.04263563    -0.67000
Ni253      Ni  0.68666486  0.02595677  0.03012368     1.26300
O254        O  0.71015455  0.99987509  0.93420064    -0.67300
O255        O  0.69044480  0.02380766  0.10124679    -0.79600
C256        C  0.68992888  0.08006415  0.01691266     0.83900
O257        O  0.68196390  0.06230306  0.03821251    -0.66700
Ni258      Ni  0.68336469  0.96264044  0.05462826     1.27400
Ni259      Ni  0.68899223  0.99137990  0.94641848     1.26100
H260        H  0.67166220  0.02695952  0.95451834     0.38400
O261        O  0.54933231  0.07512823  0.14553181    -0.81500
O262        O  0.55591777  0.95498242  0.19890037    -0.66200
O263        O  0.56418459  0.02823098  0.17456814    -1.12800
C264        C  0.56020462  0.00177471  0.00280216     1.05400
O265        O  0.57253251  0.94538125  0.14055843    -0.79400
O266        O  0.58561293  0.97688231  0.07423608    -0.67000
Ni267      Ni  0.55296309  0.05533840  0.20679772     1.34900
C268        C  0.59177876  0.99867446  0.08625339     0.84100
O269        O  0.56335497  0.99621323  0.25892251    -0.80000
O270        O  0.55601177  0.03840390  0.27081487    -0.90200
C271        C  0.56348214  0.93789522  0.17456375     0.83700
O272        O  0.53300239  0.03978586  0.20256417    -0.68400
O273        O  0.55966271  0.97800360  0.01875812    -0.87700
C274        C  0.52892480  0.01582002  0.20854684     0.84500
C275        C  0.56011798  0.01571352  0.28735931     1.06100
H276        H  0.54534395  0.98909718  0.11156090     0.37900
O277        O  0.55625062  0.99030342  0.11770019    -1.10400
O278        O  0.58416471  0.01859161  0.10083590    -0.67000
Ni279      Ni  0.56246526  0.02562058  0.10355196     1.26300
O280        O  0.53812242  0.99661212  0.20236000    -0.67300
O281        O  0.56116789  0.02176784  0.03189829    -0.79600
C282        C  0.55884262  0.07984240  0.11038358     0.83900
O283        O  0.56756478  0.06184944  0.09394273    -0.66700
Ni284      Ni  0.56560007  0.96246631  0.08102526     1.27400
Ni285      Ni  0.55968956  0.99216719  0.18874592     1.26100
H286        H  0.57479742  0.03122055  0.18341514     0.38400
O287        O  0.54991045  0.07544884  0.64777067    -0.81500
O288        O  0.55515206  0.95503672  0.69766736    -0.66200
O289        O  0.56443265  0.02777191  0.67370471    -1.12800
C290        C  0.55681512  0.00217851  0.50294852     1.05400
O291        O  0.57097240  0.94468938  0.63682778    -0.79400
O292        O  0.58281251  0.97598873  0.56570224    -0.67000
Ni293      Ni  0.55439006  0.05544664  0.70828252     1.34900
C294        C  0.58967582  0.99747124  0.57590635     0.84100
O295        O  0.56405684  0.99538201  0.75765571    -0.80000
O296        O  0.55843455  0.03825573  0.77146807    -0.90200
C297        C  0.56292090  0.93792993  0.67413501     0.83700
O298        O  0.53408395  0.04101981  0.70877123    -0.68400
O299        O  0.55549351  0.97849092  0.51900424    -0.87700
C300        C  0.52952059  0.01725042  0.71334344     0.84500
C301        C  0.56199818  0.01506750  0.78686320     1.06100
H302        H  0.54386328  0.99021819  0.61342108     0.37900
O303        O  0.55486049  0.99066273  0.61775071    -1.10400
O304        O  0.58295195  0.01705344  0.59599459    -0.67000
Ni305      Ni  0.56152236  0.02554418  0.60310079     1.26300
O306        O  0.53817468  0.99761194  0.70432810    -0.67300
O307        O  0.55902533  0.02200172  0.53177413    -0.79600
C308        C  0.55896284  0.07980339  0.61117983     0.83900
O309        O  0.56714981  0.06148864  0.59319007    -0.66700
Ni310      Ni  0.56284102  0.96241658  0.57920152     1.27400
Ni311      Ni  0.55939451  0.99198553  0.68789653     1.26100
H312        H  0.57523950  0.03000402  0.68065715     0.38400
O313        O  0.69948636  0.18702993  0.14876636    -0.81500
O314        O  0.69490247  0.30828664  0.19303914    -0.66200
O315        O  0.68507363  0.23553402  0.17025782    -1.12800
C316        C  0.69195140  0.26026364  0.99865304     1.05400
O317        O  0.67835193  0.31888033  0.13388778    -0.79400
O318        O  0.66502521  0.28633244  0.06877433    -0.67000
Ni319      Ni  0.69457946  0.20779946  0.20723078     1.34900
C320        C  0.65898638  0.26378334  0.07572775     0.84100
O321        O  0.68621237  0.26860817  0.25434952    -0.80000
O322        O  0.69027375  0.22531651  0.26933141    -0.90200
C323        C  0.68698114  0.32546162  0.17000795     0.83700
O324        O  0.71492186  0.22181340  0.20914068    -0.68400
O325        O  0.69088254  0.28410837  0.01370171    -0.87700
C326        C  0.71994329  0.24542420  0.21060054     0.84500
C327        C  0.68744918  0.24881674  0.28393237     1.06100
H328        H  0.70519390  0.27409782  0.10838892     0.37900
O329        O  0.69426222  0.27275260  0.11345067    -1.10400
O330        O  0.66673308  0.24385384  0.08988060    -0.67000
Ni331      Ni  0.68837779  0.23731578  0.09944706     1.26300
O332        O  0.71168432  0.26530357  0.19910216    -0.67300
O333        O  0.69148854  0.24035316  0.02823423    -0.79600
C334        C  0.69134407  0.18292277  0.10983943     0.83900
O335        O  0.68355817  0.20113720  0.08954384    -0.66700
Ni336      Ni  0.68511602  0.30045644  0.07542855     1.27400
Ni337      Ni  0.69033728  0.27142742  0.18401102     1.26100
H338        H  0.67421236  0.23368657  0.17632819     0.38400
O339        O  0.70086395  0.18843964  0.63917829    -0.81500
O340        O  0.69524851  0.30634084  0.69703037    -0.66200
O341        O  0.68558077  0.23411414  0.66908431    -1.12800
C342        C  0.69000718  0.26302832  0.49863676     1.05400
O343        O  0.67838384  0.31786960  0.63989395    -0.79400
O344        O  0.66426140  0.28733767  0.57333892    -0.67000
Ni345      Ni  0.69594279  0.20579941  0.70152613     1.34900
C346        C  0.65816864  0.26489858  0.58100802     0.84100
O347        O  0.68790446  0.26452751  0.75572068    -0.80000
O348        O  0.69169674  0.22072027  0.76635571    -0.90200
C349        C  0.68788476  0.32415396  0.67372123     0.83700
O350        O  0.71607928  0.22064123  0.70515709    -0.68400
O351        O  0.68961573  0.28657841  0.51551118    -0.87700
C352        C  0.72083011  0.24442291  0.70645064     0.84500
C353        C  0.68937990  0.24397619  0.78347779     1.06100
H354        H  0.70457973  0.27398086  0.60740526     0.37900
O355        O  0.69371293  0.27265725  0.61388204    -1.10400
O356        O  0.66585994  0.24443892  0.59275392    -0.67000
Ni357      Ni  0.68760971  0.23752354  0.59793973     1.26300
O358        O  0.71233887  0.26403699  0.69571618    -0.67300
O359        O  0.68946705  0.24242464  0.52658131    -0.79600
C360        C  0.69122705  0.18323958  0.60458734     0.83900
O361        O  0.68268082  0.20122506  0.58672210    -0.66700
Ni362      Ni  0.68441946  0.30131348  0.57903891     1.27400
Ni363      Ni  0.69077426  0.26961767  0.68511088     1.26100
H364        H  0.67485988  0.23179696  0.67692458     0.38400
O365        O  0.54949532  0.18841730  0.48361755    -0.81500
O366        O  0.55483706  0.30750687  0.43294539    -0.66200
O367        O  0.56468843  0.23489592  0.45495934    -1.12800
C368        C  0.56021796  0.26052536  0.62680095     1.05400
O369        O  0.57271752  0.31605679  0.48832624    -0.79400
O370        O  0.58587484  0.28584029  0.55742338    -0.67000
Ni371      Ni  0.55447030  0.20685370  0.42181944     1.34900
C372        C  0.59236360  0.26420318  0.54672846     0.84100
O373        O  0.56200708  0.26689583  0.37087146    -0.80000
O374        O  0.55906282  0.22299520  0.35822016    -0.90200
C375        C  0.56322718  0.32416443  0.45591093     0.83700
O376        O  0.53426168  0.22134636  0.41734386    -0.68400
O377        O  0.55977576  0.28435742  0.61086361    -0.87700
C378        C  0.52929630  0.24497369  0.41764329     0.84500
C379        C  0.56123393  0.24663453  0.34225585     1.06100
H380        H  0.54573037  0.27255228  0.51988006     0.37900
O381        O  0.55656950  0.27181755  0.51276738    -1.10400
O382        O  0.58493875  0.24444999  0.52963230    -0.67000
Ni383      Ni  0.56316294  0.23690745  0.52605012     1.26300
O384        O  0.53758968  0.26457103  0.43082114    -0.67300
O385        O  0.56178598  0.24057499  0.59779750    -0.79600
C386        C  0.55897153  0.18326728  0.51886955     0.83900
O387        O  0.56828318  0.20070591  0.53470885    -0.66700
Ni388      Ni  0.56587443  0.29980224  0.54866752     1.27400
Ni389      Ni  0.55921874  0.27047766  0.44160094     1.26100
H390        H  0.57537316  0.23312156  0.44621383     0.38400
O391        O  0.54935565  0.18897122  0.98564349    -0.81500
O392        O  0.55691344  0.30805705  0.93255286    -0.66200
O393        O  0.56486580  0.23507149  0.95602162    -1.12800
C394        C  0.56104717  0.26192264  0.12713974     1.05400
O395        O  0.57460865  0.31725292  0.98874557    -0.79400
O396        O  0.58726631  0.28601127  0.05688323    -0.67000
Ni397      Ni  0.55345289  0.20796321  0.92386074     1.34900
C398        C  0.59318873  0.26412072  0.04488614     0.84100
O399        O  0.56339489  0.26709381  0.87167574    -0.80000
O400        O  0.55693981  0.22436241  0.85959955    -0.90200
C401        C  0.56573049  0.32458233  0.95389071     0.83700
O402        O  0.53357607  0.22366970  0.92575312    -0.68400
O403        O  0.56115442  0.28573429  0.11115721    -0.87700
C404        C  0.52943561  0.24768338  0.92221257     0.84500
C405        C  0.56061264  0.24734010  0.84318734     1.06100
H406        H  0.54673911  0.27443679  0.01989574     0.37900
O407        O  0.55757048  0.27302973  0.01309303    -1.10400
O408        O  0.58531660  0.24438673  0.03002047    -0.67000
Ni409      Ni  0.56347465  0.23771224  0.02706692     1.26300
O410        O  0.53862188  0.26685796  0.93031188    -0.67300
O411        O  0.56215550  0.24175249  0.09855094    -0.79600
C412        C  0.55897401  0.18387203  0.02040999     0.83900
O413        O  0.56819908  0.20135742  0.03652220    -0.66700
Ni414      Ni  0.56742014  0.30080810  0.04881561     1.27400
Ni415      Ni  0.56037992  0.27103555  0.94212719     1.26100
H416        H  0.57544013  0.23219492  0.94701536     0.38400
O417        O  0.93017756  0.56523828  0.37649920    -0.81500
O418        O  0.93221835  0.44694438  0.41800194    -0.66200
O419        O  0.94482498  0.51795354  0.39695475    -1.12800
C420        C  0.94041656  0.49375056  0.22639058     1.05400
O421        O  0.95061500  0.43413703  0.36682561    -0.79400
O422        O  0.96679656  0.46776481  0.30673302    -0.67000
Ni423      Ni  0.93646824  0.54614646  0.43474043     1.34900
C424        C  0.97156338  0.49150029  0.30514928     0.84100
O425        O  0.93967921  0.48573684  0.48155789    -0.80000
O426        O  0.94210305  0.52925653  0.49594663    -0.90200
C427        C  0.94092464  0.42908642  0.40113608     0.83700
O428        O  0.91608625  0.53300515  0.44136710    -0.68400
O429        O  0.94309578  0.47025726  0.24191639    -0.87700
C430        C  0.90931943  0.51138972  0.43106085     0.84500
C431        C  0.94126752  0.50538382  0.51111129     1.06100
H432        H  0.92536238  0.47913302  0.33016109     0.37900
O433        O  0.93606681  0.48115907  0.33883492    -1.10400
O434        O  0.96297515  0.51111077  0.31453479    -0.67000
Ni435      Ni  0.94153832  0.51685209  0.32592891     1.26300
O436        O  0.91642968  0.49131861  0.41442735    -0.67300
O437        O  0.93840541  0.51360905  0.25522598    -0.79600
C438        C  0.93897900  0.57127777  0.34064989     0.83900
O439        O  0.94618877  0.55359052  0.31683354    -0.66700
Ni440      Ni  0.94653258  0.45343265  0.30564187     1.27400
Ni441      Ni  0.93796052  0.48292563  0.40987797     1.26100
H442        H  0.95573619  0.51827922  0.40329626     0.38400
O443        O  0.92812153  0.56373044  0.87367495    -0.81500
O444        O  0.93354957  0.44732860  0.92137384    -0.66200
O445        O  0.94447495  0.51878305  0.89697924    -1.12800
C446        C  0.93966403  0.49226428  0.72726216     1.05400
O447        O  0.95182622  0.43481817  0.86948308    -0.79400
O448        O  0.96693274  0.46851545  0.80604525    -0.67000
Ni449      Ni  0.93525942  0.54671833  0.93345531     1.34900
C450        C  0.97135210  0.49245410  0.80346368     0.84100
O451        O  0.94048971  0.48742079  0.98255510    -0.80000
O452        O  0.94158859  0.53133356  0.99571930    -0.90200
C453        C  0.94257617  0.42982054  0.90507751     0.83700
O454        O  0.91537792  0.53198190  0.94232561    -0.68400
O455        O  0.94263494  0.46910596  0.74398572    -0.87700
C456        C  0.90925401  0.50970564  0.93319028     0.84500
C457        C  0.94151873  0.50746926  0.01145155     1.06100
H458        H  0.92556948  0.47833229  0.83249338     0.37900
O459        O  0.93628255  0.48088740  0.84054087    -1.10400
O460        O  0.96266015  0.51175676  0.81407378    -0.67000
Ni461      Ni  0.94113129  0.51670685  0.82610579     1.26300
O462        O  0.91681487  0.49019387  0.91655770    -0.67300
O463        O  0.93782645  0.51247140  0.75547946    -0.79600
C464        C  0.93714371  0.57083669  0.83908503     0.83900
O465        O  0.94514057  0.55375252  0.81625762    -0.66700
Ni466      Ni  0.94690576  0.45322241  0.80789430     1.27400
Ni467      Ni  0.93848333  0.48351928  0.91133591     1.26100
H468        H  0.95536836  0.52006791  0.90315348     0.38400
O469        O  0.82354870  0.56610798  0.01174107    -0.81500
O470        O  0.81755238  0.44908757  0.96352599    -0.66200
O471        O  0.80793967  0.52115549  0.98463648    -1.12800
C472        C  0.81214307  0.49491908  0.15638729     1.05400
O473        O  0.79935971  0.43774819  0.01677753    -0.79400
O474        O  0.78567152  0.47031346  0.08512123    -0.67000
Ni475      Ni  0.81875881  0.54848691  0.95060648     1.34900
C476        C  0.78026914  0.49344245  0.08049891     0.84100
O477        O  0.81152079  0.48883913  0.90041019    -0.80000
O478        O  0.81482691  0.53248795  0.88701545    -0.90200
C479        C  0.80864240  0.43187803  0.98193279     0.83700
O480        O  0.83867490  0.53363206  0.95276774    -0.68400
O481        O  0.81126003  0.47114778  0.14027207    -0.87700
C482        C  0.84377974  0.51049014  0.95955840     0.84500
C483        C  0.81265255  0.50893429  0.87149353     1.06100
H484        H  0.82611332  0.48210721  0.05136736     0.37900
O485        O  0.81536442  0.48365698  0.04307972    -1.10400
O486        O  0.78813103  0.51281478  0.06357140    -0.67000
Ni487      Ni  0.80985949  0.51919952  0.05625145     1.26300
O488        O  0.83521196  0.49053282  0.96691100    -0.67300
O489        O  0.81188832  0.51531912  0.12775748    -0.79600
C490        C  0.81331995  0.57345942  0.04197548     0.83900
O491        O  0.80524167  0.55611509  0.06439936    -0.66700
Ni492      Ni  0.80559389  0.45551899  0.07751655     1.27400
Ni493      Ni  0.81334973  0.48548150  0.97187202     1.26100
H494        H  0.79724304  0.52318372  0.97608940     0.38400
O495        O  0.82173050  0.56905663  0.51002145    -0.81500
O496        O  0.81788631  0.44933863  0.46476131    -0.66200
O497        O  0.80762714  0.52127477  0.48673833    -1.12800
C498        C  0.81368807  0.49438812  0.65719182     1.05400
O499        O  0.79951746  0.43829522  0.51755726    -0.79400
O500        O  0.78616868  0.47055303  0.58796564    -0.67000
Ni501      Ni  0.81733132  0.54919769  0.45082033     1.34900
C502        C  0.78104509  0.49398963  0.58442277     0.84100
O503        O  0.81086037  0.48862599  0.40197312    -0.80000
O504        O  0.81379672  0.53206584  0.38806132    -0.90200
C505        C  0.80869159  0.43226734  0.48242455     0.83700
O506        O  0.83757774  0.53579701  0.45376118    -0.68400
O507        O  0.81220380  0.47070087  0.64119783    -0.87700
C508        C  0.84332798  0.51300751  0.45955736     0.84500
C509        C  0.81181135  0.50848229  0.37258091     1.06100
H510        H  0.82675685  0.48200396  0.55153975     0.37900
O511        O  0.81596849  0.48373635  0.54403216    -1.10400
O512        O  0.78905290  0.51296906  0.56739524    -0.67000
Ni513      Ni  0.81054765  0.51913555  0.55798590     1.26300
O514        O  0.83522907  0.49228879  0.46643214    -0.67300
O515        O  0.81345789  0.51492419  0.62892800    -0.79600
C516        C  0.81241136  0.57407492  0.54494334     0.83900
O517        O  0.80559623  0.55557668  0.56814224    -0.66700
Ni518      Ni  0.80608520  0.45558108  0.57847877     1.27400
Ni519      Ni  0.81341324  0.48571242  0.47323839     1.26100
H520        H  0.79679104  0.52270638  0.47972523     0.38400
O521        O  0.92715197  0.19071280  0.01395704    -0.81500
O522        O  0.93337727  0.30755626  0.97116869    -0.66200
O523        O  0.94380853  0.23571473  0.99376824    -1.12800
C524        C  0.93875254  0.25989593  0.16433943     1.05400
O525        O  0.95117165  0.31961085  0.02585721    -0.79400
O526        O  0.96622103  0.28482070  0.08623636    -0.67000
Ni527      Ni  0.93460601  0.20818855  0.95557449     1.34900
C528        C  0.97061476  0.26091380  0.08814173     0.84100
O529        O  0.94064844  0.26789431  0.90850990    -0.80000
O530        O  0.94143451  0.22400902  0.89477503    -0.90200
C531        C  0.94188943  0.32518730  0.99053210     0.83700
O532        O  0.91479759  0.22307356  0.94531318    -0.68400
O533        O  0.94210857  0.28317676  0.14904467    -0.87700
C534        C  0.90879132  0.24535987  0.95451371     0.84500
C535        C  0.94193805  0.24787816  0.87946492     1.06100
H536        H  0.92482391  0.27559083  0.05828819     0.37900
O537        O  0.93555635  0.27303486  0.05104854    -1.10400
O538        O  0.96174328  0.24152504  0.07838258    -0.67000
Ni539      Ni  0.94013063  0.23700667  0.06458607     1.26300
O540        O  0.91643466  0.26462380  0.97246342    -0.67300
O541        O  0.93649365  0.24022104  0.13511096    -0.79600
C542        C  0.93609024  0.18318582  0.04853841     0.83900
O543        O  0.94377878  0.20000016  0.07346413    -0.66700
Ni544      Ni  0.94627625  0.30010035  0.08599828     1.27400
Ni545      Ni  0.93813101  0.27116769  0.98006156     1.26100
H546        H  0.95472752  0.23441210  0.98840492     0.38400
O547        O  0.92749142  0.19071913  0.51998600    -0.81500
O548        O  0.93190005  0.30715633  0.47151285    -0.66200
O549        O  0.94334595  0.23594057  0.49455607    -1.12800
C550        C  0.93984709  0.26222568  0.66476567     1.05400
O551        O  0.95064183  0.31965291  0.52228047    -0.79400
O552        O  0.96621621  0.28700488  0.58586468    -0.67000
Ni553      Ni  0.93376294  0.20778597  0.45941799     1.34900
C554        C  0.97104221  0.26333553  0.58607435     0.84100
O555        O  0.93847007  0.26723784  0.40929359    -0.80000
O556        O  0.93911851  0.22330948  0.39641168    -0.90200
C557        C  0.94109089  0.32470546  0.48742271     0.83700
O558        O  0.91371902  0.22183967  0.45312465    -0.68400
O559        O  0.94213752  0.28564580  0.64821488    -0.87700
C560        C  0.90761657  0.24404971  0.46194601     0.84500
C561        C  0.93911720  0.24713024  0.38038349     1.06100
H562        H  0.92483742  0.27539812  0.56075597     0.37900
O563        O  0.93549768  0.27340889  0.55189809    -1.10400
O564        O  0.96250367  0.24372170  0.57515061    -0.67000
Ni565      Ni  0.94090454  0.23783467  0.56573532     1.26300
O566        O  0.91534340  0.26385020  0.47702469    -0.67300
O567        O  0.93847167  0.24178190  0.63676738    -0.79600
C568        C  0.93681565  0.18392607  0.55404601     0.83900
O569        O  0.94536320  0.20100991  0.57504721    -0.66700
Ni570      Ni  0.94605689  0.30148337  0.58413398     1.27400
Ni571      Ni  0.93704101  0.27102452  0.48083587     1.26100
H572        H  0.95415578  0.23491032  0.48711660     0.38400
O573        O  0.82209156  0.19286422  0.37103502    -0.81500
O574        O  0.81860738  0.30975854  0.41662959    -0.66200
O575        O  0.80673558  0.23863062  0.39293900    -1.12800
C576        C  0.81209833  0.26481399  0.22271171     1.05400
O577        O  0.80034788  0.32242041  0.36423104    -0.79400
O578        O  0.78495835  0.28953760  0.30087138    -0.67000
Ni579      Ni  0.81557107  0.21037997  0.43010017     1.34900
C580        C  0.78010178  0.26588068  0.29892892     0.84100
O581        O  0.81128950  0.27012829  0.47880464    -0.80000
O582        O  0.80991414  0.22627049  0.49194769    -0.90200
C583        C  0.80978957  0.32744324  0.39942671     0.83700
O584        O  0.83579800  0.22382193  0.43682890    -0.68400
O585        O  0.80927864  0.28804084  0.23916387    -0.87700
C586        C  0.84216189  0.24572219  0.42665206     0.84500
C587        C  0.80999165  0.25001403  0.50763798     1.06100
H588        H  0.82612787  0.27823582  0.32831707     0.37900
O589        O  0.81539756  0.27608171  0.33620628    -1.10400
O590        O  0.78859700  0.24612730  0.30904906    -0.67000
Ni591      Ni  0.81011577  0.24045301  0.32183658     1.26300
O592        O  0.83480361  0.26607543  0.41253976    -0.67300
O593        O  0.81358067  0.24447951  0.25108779    -0.79600
C594        C  0.81288579  0.18610547  0.33675272     0.83900
O595        O  0.80563246  0.20360069  0.31214875    -0.66700
Ni596      Ni  0.80513510  0.30404744  0.30289769     1.27400
Ni597      Ni  0.81323280  0.27371623  0.40720486     1.26100
H598        H  0.79582522  0.23781271  0.39884023     0.38400
O599        O  0.82254417  0.19322033  0.86787471    -0.81500
O600        O  0.81814777  0.31066931  0.91385715    -0.66200
O601        O  0.80747582  0.23883215  0.89344343    -1.12800
C602        C  0.81222536  0.26436691  0.72209133     1.05400
O603        O  0.79981280  0.32200075  0.86075292    -0.79400
O604        O  0.78578593  0.28943084  0.79225429    -0.67000
Ni605      Ni  0.81758279  0.21122931  0.92837414     1.34900
C606        C  0.78026998  0.26626088  0.79696895     0.84100
O607        O  0.81154626  0.27138888  0.97739272    -0.80000
O608        O  0.81358184  0.22765658  0.99147949    -0.90200
C609        C  0.80885129  0.32764802  0.89678231     0.83700
O610        O  0.83776893  0.22513548  0.92783062    -0.68400
O611        O  0.81143663  0.28821799  0.73767014    -0.87700
C612        C  0.84341854  0.24788222  0.92038415     0.84500
C613        C  0.81210365  0.25142452  0.00674300     1.06100
H614        H  0.82625830  0.27721930  0.82679251     0.37900
O615        O  0.81550097  0.27585610  0.83490810    -1.10400
O616        O  0.78803126  0.24702150  0.81420081    -0.67000
Ni617      Ni  0.80957384  0.24040416  0.82206726     1.26300
O618        O  0.83531157  0.26822736  0.91159935    -0.67300
O619        O  0.81173005  0.24398258  0.75070340    -0.79600
C620        C  0.81281452  0.18641022  0.83506503     0.83900
O621        O  0.80447649  0.20365635  0.81380081    -0.66700
Ni622      Ni  0.80588771  0.30402512  0.80021081     1.27400
Ni623      Ni  0.81349197  0.27431790  0.90594247     1.26100
H624        H  0.79672255  0.23731778  0.90152116     0.38400
O625        O  0.92817538  0.68957194  0.26196168    -0.81500
O626        O  0.93469161  0.80573678  0.20968191    -0.66200
O627        O  0.94477037  0.73388484  0.23593934    -1.12800
C628        C  0.94080651  0.76192981  0.40520419     1.05400
O629        O  0.95341643  0.81757608  0.26107058    -0.79400
O630        O  0.96851918  0.78434210  0.32577105    -0.67000
Ni631      Ni  0.93482750  0.70580303  0.20116108     1.34900
C632        C  0.97287330  0.76041017  0.32830462     0.84100
O633        O  0.94079822  0.76441112  0.14902125    -0.80000
O634        O  0.94082444  0.72027348  0.13805452    -0.90200
C635        C  0.94371855  0.82329430  0.22693718     0.83700
O636        O  0.91494024  0.72083313  0.19286735    -0.68400
O637        O  0.94417770  0.78488123  0.38807713    -0.87700
C638        C  0.90917045  0.74352813  0.19989385     0.84500
C639        C  0.94144455  0.74384121  0.12110957     1.06100
H640        H  0.92678356  0.77523524  0.29981199     0.37900
O641        O  0.93742037  0.77243664  0.29150724    -1.10400
O642        O  0.96387106  0.74108477  0.31878470    -0.67000
Ni643      Ni  0.94202100  0.73668795  0.30707343     1.26300
O644        O  0.91711013  0.76310924  0.21548968    -0.67300
O645        O  0.93899952  0.74153158  0.37745021    -0.79600
C646        C  0.93759616  0.68248224  0.29554915     0.83900
O647        O  0.94562695  0.69976062  0.31815884    -0.66700
Ni648      Ni  0.94856367  0.80000124  0.32345830     1.27400
Ni649      Ni  0.93909172  0.76920274  0.22042785     1.26100
H650        H  0.95560066  0.73223418  0.22924925     0.38400
O651        O  0.92942629  0.68864834  0.75643716    -0.81500
O652        O  0.93360213  0.80692413  0.71423970    -0.66200
O653        O  0.94508950  0.73526585  0.73477929    -1.12800
C654        C  0.94007883  0.75886737  0.90587812     1.05400
O655        O  0.95162112  0.81934956  0.76777971    -0.79400
O656        O  0.96694278  0.78549546  0.83023748    -0.67000
Ni657      Ni  0.93579003  0.70747217  0.69763849     1.34900
C658        C  0.97180839  0.76186462  0.83080401     0.84100
O659        O  0.94065233  0.76801794  0.65050908    -0.80000
O660        O  0.94123650  0.72421181  0.63599633    -0.90200
C661        C  0.94242307  0.82457072  0.73199866     0.83700
O662        O  0.91564781  0.72138037  0.69187823    -0.68400
O663        O  0.94251154  0.78247769  0.89054397    -0.87700
C664        C  0.90945422  0.74353345  0.70081627     0.84500
C665        C  0.94134251  0.74818554  0.62097680     1.06100
H666        H  0.92591802  0.77359586  0.80115759     0.37900
O667        O  0.93665995  0.77187908  0.79316543    -1.10400
O668        O  0.96356297  0.74212621  0.81809975    -0.67000
Ni669      Ni  0.94207078  0.73608552  0.80577814     1.26300
O670        O  0.91709627  0.76339874  0.71619073    -0.67300
O671        O  0.93892438  0.73884552  0.87674951    -0.79600
C672        C  0.93826296  0.68202490  0.79204131     0.83900
O673        O  0.94660731  0.69915869  0.81380368    -0.66700
Ni674      Ni  0.94673677  0.79964984  0.82789859     1.27400
Ni675      Ni  0.93876668  0.77063246  0.72215957     1.26100
H676        H  0.95595875  0.73439162  0.72823564     0.38400
O677        O  0.81659919  0.68568140  0.13973759    -0.81500
O678        O  0.81691523  0.81044183  0.17424599    -0.66200
O679        O  0.80729880  0.73764947  0.15152417    -1.12800
C680        C  0.81485829  0.76408103  0.98123506     1.05400
O681        O  0.79932428  0.82135197  0.11841921    -0.79400
O682        O  0.78601123  0.78732370  0.05208381    -0.67000
Ni683      Ni  0.81853246  0.71220279  0.19015757     1.34900
C684        C  0.78142216  0.76345583  0.05130530     0.84100
O685        O  0.80834179  0.77109021  0.23505525    -0.80000
O686        O  0.82113590  0.73407634  0.24860782    -0.90200
C687        C  0.80811170  0.82749194  0.15467008     0.83700
O688        O  0.83761311  0.72406911  0.16379324    -0.68400
O689        O  0.81161901  0.78732734  0.99640323    -0.87700
C690        C  0.84312245  0.74718058  0.17010414     0.84500
C691        C  0.81455480  0.75470278  0.26475938     1.06100
H692        H  0.82689013  0.77837782  0.08928030     0.37900
O693        O  0.81606169  0.77572275  0.09494317    -1.10400
O694        O  0.78995260  0.74423117  0.06469942    -0.67000
Ni695      Ni  0.81156452  0.73982409  0.08035114     1.26300
O696        O  0.83450147  0.76738433  0.17649394    -0.67300
O697        O  0.81595069  0.74399265  0.01031154    -0.79600
C698        C  0.81141098  0.68342690  0.09551791     0.83900
O699        O  0.80795944  0.70303722  0.06794228    -0.66700
Ni700      Ni  0.80583544  0.80304726  0.05882639     1.27400
Ni701      Ni  0.81253424  0.77376413  0.16499819     1.26100
H702        H  0.79646452  0.73501228  0.15702876     0.38400
O703        O  0.82152435  0.69027817  0.62622476    -0.81500
O704        O  0.81797151  0.80952544  0.67511498    -0.66200
O705        O  0.80736609  0.73736904  0.65128891    -1.12800
C706        C  0.81263087  0.76585634  0.48120533     1.05400
O707        O  0.79885119  0.81999581  0.62431699    -0.79400
O708        O  0.78519191  0.78849236  0.55279658    -0.67000
Ni709      Ni  0.81705943  0.70910407  0.68624041     1.34900
C710        C  0.78013412  0.76490538  0.55409430     0.84100
O711        O  0.81218877  0.76912334  0.73748295    -0.80000
O712        O  0.81373020  0.72533979  0.74966112    -0.90200
C713        C  0.80814780  0.82613349  0.65941448     0.83700
O714        O  0.83725298  0.72272215  0.68448983    -0.68400
O715        O  0.81081751  0.78926846  0.49839459    -0.87700
C716        C  0.84329816  0.74515434  0.67660367     0.84500
C717        C  0.81278859  0.74885774  0.76611951     1.06100
H718        H  0.82590144  0.77741389  0.58621688     0.37900
O719        O  0.81520527  0.77538286  0.59469006    -1.10400
O720        O  0.78816935  0.74569114  0.57010025    -0.67000
Ni721      Ni  0.80981656  0.73996088  0.57968458     1.26300
O722        O  0.83545075  0.76605517  0.66914482    -0.67300
O723        O  0.81258259  0.74489975  0.50848605    -0.79600
C724        C  0.81201576  0.68489700  0.59183972     0.83900
O725        O  0.80499721  0.70327096  0.56885896    -0.66700
Ni726      Ni  0.80508436  0.80366500  0.56214320     1.27400
Ni727      Ni  0.81355559  0.77283800  0.66575327     1.26100
H728        H  0.79655742  0.73601931  0.65863092     0.38400
O729        O  0.92667595  0.06437079  0.11623489    -0.81500
O730        O  0.93213837  0.94752371  0.16762695    -0.66200
O731        O  0.94238128  0.01969332  0.14375953    -1.12800
C732        C  0.93960304  0.99208460  0.97357406     1.05400
O733        O  0.95114517  0.93654269  0.11755130    -0.79400
O734        O  0.96593371  0.96941105  0.05165410    -0.67000
Ni735      Ni  0.93207413  0.04750953  0.17759906     1.34900
C736        C  0.97062472  0.99322252  0.05179637     0.84100
O737        O  0.93795086  0.98836472  0.22939822    -0.80000
O738        O  0.93659072  0.03230386  0.24158441    -0.90200
C739        C  0.94137129  0.93037283  0.15092269     0.83700
O740        O  0.91202964  0.03279211  0.17868267    -0.68400
O741        O  0.94156673  0.96863979  0.99042646    -0.87700
C742        C  0.90656940  0.00994868  0.17055559     0.84500
C743        C  0.93767174  0.00865763  0.25792779     1.06100
H744        H  0.92461488  0.97899552  0.07744315     0.37900
O745        O  0.93525145  0.98145547  0.08665897    -1.10400
O746        O  0.96208099  0.01249322  0.06408018    -0.67000
Ni747      Ni  0.94030440  0.01718493  0.07218771     1.26300
O748        O  0.91479437  0.98994565  0.16062611    -0.67300
O749        O  0.93822403  0.01262041  0.00119326    -0.79600
C750        C  0.93648511  0.07130425  0.08404815     0.83900
O751        O  0.94448550  0.05403547  0.06193858    -0.66700
Ni752      Ni  0.94603357  0.95369495  0.05501410     1.27400
Ni753      Ni  0.93664368  0.98414525  0.15790967     1.26100
H754        H  0.95312820  0.02151763  0.15191263     0.38400
O755        O  0.92718450  0.06410196  0.62479813    -0.81500
O756        O  0.93166889  0.94664289  0.66385602    -0.66200
O757        O  0.94309628  0.01851020  0.64556652    -1.12800
C758        C  0.93828425  0.99605980  0.47386997     1.05400
O759        O  0.95009059  0.93531215  0.61150438    -0.79400
O760        O  0.96538293  0.96990048  0.55066014    -0.67000
Ni761      Ni  0.93392581  0.04583033  0.68352747     1.34900
C762        C  0.97014179  0.99365971  0.55090620     0.84100
O763        O  0.93870123  0.98532680  0.72875086    -0.80000
O764        O  0.93999401  0.02903035  0.74454747    -0.90200
C765        C  0.94070082  0.92943400  0.64626081     0.83700
O766        O  0.91384146  0.03151049  0.69083206    -0.68400
O767        O  0.94098512  0.97244304  0.48874974    -0.87700
C768        C  0.90756595  0.00949813  0.68064468     0.84500
C769        C  0.94001055  0.00490700  0.75874894     1.06100
H770        H  0.92406774  0.98020712  0.57738127     0.37900
O771        O  0.93477450  0.98223368  0.58593562    -1.10400
O772        O  0.96164673  0.01311116  0.56250335    -0.67000
Ni773      Ni  0.94006828  0.01823776  0.57443506     1.26300
O774        O  0.91497574  0.99010267  0.66252393    -0.67300
O775        O  0.93688945  0.01583267  0.50341052    -0.79600
C776        C  0.93644151  0.07196884  0.59146650     0.83900
O777        O  0.94447238  0.05531266  0.56775241    -0.66700
Ni778      Ni  0.94523725  0.95507540  0.55133083     1.27400
Ni779      Ni  0.93673933  0.98308946  0.65702816     1.26100
H780        H  0.95397623  0.01939990  0.65233146     0.38400
O781        O  0.82241402  0.06773301  0.26611725    -0.81500
O782        O  0.81585268  0.95237534  0.21083366    -0.66200
O783        O  0.80607962  0.02386315  0.23877888    -1.12800
C784        C  0.81168102  0.99528198  0.40815492     1.05400
O785        O  0.79843341  0.93977131  0.26584220    -0.79400
O786        O  0.78462937  0.97151772  0.33546549    -0.67000
Ni787      Ni  0.81587555  0.05217224  0.20459120     1.34900
C788        C  0.77943071  0.99492645  0.33495549     0.84100
O789        O  0.80882373  0.99385416  0.15160609    -0.80000
O790        O  0.81012947  0.03796825  0.14072578    -0.90200
C791        C  0.80747427  0.93446381  0.22990947     0.83700
O792        O  0.83573821  0.03755281  0.19720615    -0.68400
O793        O  0.81022536  0.97178245  0.39110420    -0.87700
C794        C  0.84130674  0.01457308  0.20112417     0.84500
C795        C  0.80874075  0.01450878  0.12365237     1.06100
H796        H  0.82519048  0.98349144  0.30031658     0.37900
O797        O  0.81436784  0.98538390  0.29352332    -1.10400
O798        O  0.78747598  0.01461235  0.32042601    -0.67000
Ni799      Ni  0.80912776  0.02069228  0.30984761     1.26300
O800        O  0.83334270  0.99464882  0.21449956    -0.67300
O801        O  0.81215685  0.01592806  0.38043966    -0.79600
C802        C  0.81294900  0.07452751  0.29944413     0.83900
O803        O  0.80489238  0.05721281  0.32159570    -0.66700
Ni804      Ni  0.80463988  0.95692329  0.32733417     1.27400
Ni805      Ni  0.81155226  0.98872009  0.22258833     1.26100
H806        H  0.79523120  0.02565857  0.23226836     0.38400
O807        O  0.82313576  0.06660244  0.76633590    -0.81500
O808        O  0.81460399  0.95052591  0.71484912    -0.66200
O809        O  0.80618489  0.02339933  0.73603585    -1.12800
C810        C  0.80737227  0.99730723  0.90787170     1.05400
O811        O  0.79567035  0.93994494  0.76588760    -0.79400
O812        O  0.78093947  0.97431361  0.82847398    -0.67000
Ni813      Ni  0.81792990  0.05026129  0.70400987     1.34900
C814        C  0.77648577  0.99816083  0.82562861     0.84100
O815        O  0.81025963  0.99162658  0.65145246    -0.80000
O816        O  0.81363374  0.03543005  0.63960058    -0.90200
C817        C  0.80558681  0.93336885  0.73338827     0.83700
O818        O  0.83753590  0.03392998  0.70418465    -0.68400
O819        O  0.80502087  0.97388792  0.89150099    -0.87700
C820        C  0.84207525  0.01041751  0.71080673     0.84500
C821        C  0.81181559  0.01195307  0.62307818     1.06100
H822        H  0.82250300  0.98254443  0.80459655     0.37900
O823        O  0.81195287  0.98518458  0.79479540    -1.10400
O824        O  0.78538659  0.01711969  0.81331560    -0.67000
Ni825      Ni  0.80734276  0.02125451  0.80766647     1.26300
O826        O  0.83306971  0.99131569  0.72090283    -0.67300
O827        O  0.80882334  0.01747588  0.87916306    -0.79600
C828        C  0.81307326  0.07463918  0.79667995     0.83900
O829        O  0.80367413  0.05836111  0.81582733    -0.66700
Ni830      Ni  0.80065392  0.95809565  0.82753900     1.27400
Ni831      Ni  0.81100785  0.98745241  0.72321383     1.26100
H832        H  0.79561993  0.02613131  0.72636844     0.38400
O833        O  0.19799748  0.06980255  0.21698488    -0.81500
O834        O  0.19341150  0.95045596  0.16959830    -0.66200
O835        O  0.18263671  0.02267137  0.19236025    -1.12800
C836        C  0.18663992  0.99680830  0.36382534     1.05400
O837        O  0.17560700  0.93973360  0.22364994    -0.79400
O838        O  0.16043345  0.97150179  0.28390560    -0.67000
Ni839      Ni  0.19232299  0.05086838  0.15710727     1.34900
C840        C  0.15497348  0.99450866  0.27879829     0.84100
O841        O  0.18608864  0.99063267  0.10750880    -0.80000
O842        O  0.18737766  0.03467928  0.09427224    -0.90200
C843        C  0.18588025  0.93292614  0.19315280     0.83700
O844        O  0.21254052  0.03668351  0.15208746    -0.68400
O845        O  0.18445391  0.97327816  0.34815205    -0.87700
C846        C  0.21793330  0.01344772  0.15609777     0.84500
C847        C  0.18645032  0.01086281  0.07874039     1.06100
H848        H  0.20143318  0.98338675  0.25796630     0.37900
O849        O  0.19066500  0.98514285  0.25012333    -1.10400
O850        O  0.16324702  0.01486836  0.27079022    -0.67000
Ni851      Ni  0.18511828  0.02067183  0.26368285     1.26300
O852        O  0.20993662  0.99383558  0.17083534    -0.67300
O853        O  0.18762392  0.01699595  0.33501529    -0.79600
C854        C  0.18940968  0.07484280  0.25413368     0.83900
O855        O  0.18087152  0.05717855  0.27325061    -0.66700
Ni856      Ni  0.18045932  0.95730861  0.28462740     1.27400
Ni857      Ni  0.18834647  0.98709156  0.17865782     1.26100
H858        H  0.17183719  0.02412141  0.18477941     0.38400
O859        O  0.19851694  0.07106228  0.71811563    -0.81500
O860        O  0.19384385  0.95081958  0.67072615    -0.66200
O861        O  0.18391703  0.02351264  0.69183906    -1.12800
C862        C  0.19001696  0.99899476  0.86412211     1.05400
O863        O  0.17749092  0.94097503  0.73003073    -0.79400
O864        O  0.16449229  0.97215110  0.79901747    -0.67000
Ni865      Ni  0.19426466  0.05125286  0.65770493     1.34900
C866        C  0.15769074  0.99369055  0.78895748     0.84100
O867        O  0.18551648  0.99082093  0.60816878    -0.80000
O868        O  0.19074672  0.03401501  0.59454143    -0.90200
C869        C  0.18678812  0.93357667  0.69667855     0.83700
O870        O  0.21452404  0.03731318  0.65863337    -0.68400
O871        O  0.19119292  0.97516245  0.84912148    -0.87700
C872        C  0.21918072  0.01365240  0.65502717     0.84500
C873        C  0.18761479  0.01067334  0.57905193     1.06100
H874        H  0.20391859  0.98665279  0.75540042     0.37900
O875        O  0.19297148  0.98691928  0.74983000    -1.10400
O876        O  0.16460464  0.01335153  0.76923984    -0.67000
Ni877      Ni  0.18620497  0.02179421  0.76297017     1.26300
O878        O  0.21066495  0.99376481  0.66454198    -0.67300
O879        O  0.18826966  0.01871155  0.83458675    -0.79600
C880        C  0.18925745  0.07583538  0.75371184     0.83900
O881        O  0.18069309  0.05784857  0.77159415    -0.66700
Ni882      Ni  0.18463930  0.95878024  0.78841817     1.27400
Ni883      Ni  0.18926320  0.98775401  0.67881750     1.26100
H884        H  0.17316753  0.02545846  0.68384288     0.38400
O885        O  0.05078544  0.07081850  0.39775322    -0.81500
O886        O  0.05547101  0.94949455  0.44717529    -0.66200
O887        O  0.06472532  0.02246211  0.42275636    -1.12800
C888        C  0.05782228  0.99631808  0.25144103     1.05400
O889        O  0.07156439  0.93967202  0.38716998    -0.79400
O890        O  0.08385052  0.97119340  0.31711632    -0.67000
Ni891      Ni  0.05463326  0.05013574  0.45746114     1.34900
C892        C  0.09040393  0.99316835  0.32589992     0.84100
O893        O  0.06409984  0.98991309  0.50704759    -0.80000
O894        O  0.05789117  0.03253169  0.52044961    -0.90200
C895        C  0.06277929  0.93232687  0.42214788     0.83700
O896        O  0.03432691  0.03608122  0.45488997    -0.68400
O897        O  0.05703429  0.97261962  0.26760929    -0.87700
C898        C  0.02970946  0.01239526  0.46031969     0.84500
C899        C  0.06154071  0.00947519  0.53601007     1.06100
H900        H  0.04446340  0.98435380  0.36181793     0.37900
O901        O  0.05543606  0.98512185  0.36662433    -1.10400
O902        O  0.08338301  0.01262163  0.34498594    -0.67000
Ni903      Ni  0.06189607  0.02016761  0.35185563     1.26300
O904        O  0.03834980  0.99247312  0.45298291    -0.67300
O905        O  0.05951972  0.01640376  0.28018325    -0.79600
C906        C  0.05962382  0.07459109  0.36056981     0.83900
O907        O  0.06743761  0.05610400  0.34166384    -0.66700
Ni908      Ni  0.06392299  0.95699288  0.32872561     1.27400
Ni909      Ni  0.05968660  0.98656470  0.43717488     1.26100
H910        H  0.07551591  0.02470697  0.42986117     0.38400
O911        O  0.05014809  0.06936677  0.89664287    -0.81500
O912        O  0.05302826  0.95090893  0.94552436    -0.66200
O913        O  0.06531387  0.02239323  0.92266611    -1.12800
C914        C  0.06147736  0.99747793  0.75155315     1.05400
O915        O  0.07047065  0.93821275  0.89130740    -0.79400
O916        O  0.08703594  0.97030190  0.83374846    -0.67000
Ni917      Ni  0.05604559  0.05099298  0.95734584     1.34900
C918        C  0.09274518  0.99333226  0.83679059     0.84100
O919        O  0.06094537  0.99083755  0.00773126    -0.80000
O920        O  0.06136292  0.03496909  0.02037750    -0.90200
C921        C  0.06037226  0.93269007  0.92360809     0.83700
O922        O  0.03567882  0.03743287  0.96515055    -0.68400
O923        O  0.06356655  0.97391130  0.76720303    -0.87700
C924        C  0.02985489  0.01452485  0.96017325     0.84500
C925        C  0.06169628  0.01111105  0.03636352     1.06100
H926        H  0.04595287  0.98387168  0.85661581     0.37900
O927        O  0.05671526  0.98526310  0.86489912    -1.10400
O928        O  0.08465434  0.01395399  0.84361352    -0.67000
Ni929      Ni  0.06287648  0.02064188  0.85156685     1.26300
O930        O  0.03733697  0.99496628  0.94304699    -0.67300
O931        O  0.06022412  0.01736010  0.78061683    -0.79600
C932        C  0.05922683  0.07476364  0.86076308     0.83900
O933        O  0.06779946  0.05706188  0.84244368    -0.66700
Ni934      Ni  0.06662894  0.95716893  0.83074507     1.27400
Ni935      Ni  0.05881731  0.98721740  0.93632807     1.26100
H936        H  0.07612945  0.02332889  0.93034536     0.38400
O937        O  0.05143349  0.18417779  0.23812973    -0.81500
O938        O  0.05570865  0.30401624  0.19015846    -0.66200
O939        O  0.06612064  0.23169389  0.21289099    -1.12800
C940        C  0.06041239  0.25578928  0.38486656     1.05400
O941        O  0.07185541  0.31563416  0.24982542    -0.79400
O942        O  0.08619276  0.28347820  0.31474314    -0.67000
Ni943      Ni  0.05644687  0.20349975  0.17780726     1.34900
C944        C  0.09247659  0.26128110  0.30682525     0.84100
O945        O  0.06407929  0.26399381  0.12869071    -0.80000
O946        O  0.06089571  0.22022566  0.11489599    -0.90200
C947        C  0.06270334  0.32186017  0.21485334     0.83700
O948        O  0.03607299  0.21716956  0.17388203    -0.68400
O949        O  0.06044743  0.27978608  0.37013816    -0.87700
C950        C  0.03094114  0.24066706  0.17403459     0.84500
C951        C  0.06302533  0.24392992  0.09961801     1.06100
H952        H  0.04614982  0.26906383  0.27608954     0.37900
O953        O  0.05707387  0.26844975  0.27037769    -1.10400
O954        O  0.08508238  0.24118174  0.29112971    -0.67000
Ni955      Ni  0.06354084  0.23328803  0.28379945     1.26300
O956        O  0.03913899  0.26054829  0.18629582    -0.67300
O957        O  0.06123260  0.23603065  0.35524462    -0.79600
C958        C  0.06063781  0.17911824  0.27404571     0.83900
O959        O  0.06893968  0.19725071  0.29264025    -0.66700
Ni960      Ni  0.06581113  0.29660529  0.30842892     1.27400
Ni961      Ni  0.06055505  0.26724883  0.19933120     1.26100
H962        H  0.07692620  0.23015920  0.20570226     0.38400
O963        O  0.04985112  0.18568696  0.74093104    -0.81500
O964        O  0.05705838  0.30402813  0.68852911    -0.66200
O965        O  0.06596658  0.23148485  0.71299509    -1.12800
C966        C  0.06197011  0.25740070  0.88432081     1.05400
O967        O  0.07404944  0.31479483  0.74619467    -0.79400
O968        O  0.08787265  0.28273348  0.81171018    -0.67000
Ni969      Ni  0.05538021  0.20377169  0.67955104     1.34900
C970        C  0.09356428  0.26005207  0.80425092     0.84100
O971        O  0.06380208  0.26325254  0.62791687    -0.80000
O972        O  0.06017952  0.21940310  0.61573354    -0.90200
C973        C  0.06479780  0.32137900  0.71178826     0.83700
O974        O  0.03549178  0.21923157  0.67543031    -0.68400
O975        O  0.06262182  0.28128897  0.86890418    -0.87700
C976        C  0.03089287  0.24305107  0.67534877     0.84500
C977        C  0.06237543  0.24295927  0.59967263     1.06100
H978        H  0.04738419  0.27080492  0.77651832     0.37900
O979        O  0.05822980  0.26931370  0.76991361    -1.10400
O980        O  0.08563198  0.24024481  0.79003905    -0.67000
Ni981      Ni  0.06385999  0.23383114  0.78391735     1.26300
O982        O  0.03947284  0.26230085  0.68802071    -0.67300
O983        O  0.06193508  0.23740851  0.85515459    -0.79600
C984        C  0.05904270  0.18012047  0.77654034     0.83900
O985        O  0.06830021  0.19733446  0.79349711    -0.66700
Ni986      Ni  0.06787924  0.29715807  0.80616166     1.27400
Ni987      Ni  0.06110110  0.26725532  0.69870347     1.26100
H988        H  0.07666515  0.22914679  0.70517228     0.38400
O989        O  0.19992020  0.18229434  0.38431208    -0.81500
O990        O  0.19356703  0.30133708  0.43764251    -0.66200
O991        O  0.18429378  0.22932264  0.40712444    -1.12800
C992        C  0.18690017  0.25244592  0.23833892     1.05400
O993        O  0.18512000  0.31961719  0.36647944    -0.79400
O994        O  0.16391249  0.28217777  0.34098891    -0.67000
Ni995      Ni  0.19342333  0.20089582  0.44358435     1.34900
C996        C  0.15833124  0.25928983  0.33313695     0.84100
O997        O  0.18457008  0.26012355  0.49359032    -0.80000
O998        O  0.18751556  0.21641221  0.50601104    -0.90200
C999        C  0.19050606  0.32136906  0.41051910     0.83700
O1000       O  0.21352758  0.21534576  0.45290654    -0.68400
O1001       O  0.18024110  0.27279338  0.25538480    -0.87700
C1002       C  0.21847370  0.23901629  0.45439093     0.84500
C1003       C  0.18510783  0.23977603  0.52216784     1.06100
H1004       H  0.20482443  0.27034979  0.34813834     0.37900
O1005       O  0.19394151  0.26782035  0.35292021    -1.10400
O1006       O  0.16682513  0.23918253  0.32488922    -0.67000
Ni1007     Ni  0.18856175  0.23218134  0.33733059     1.26300
O1008       O  0.21047960  0.25871151  0.44005301    -0.67300
O1009       O  0.19316263  0.23581508  0.26753763    -0.79600
C1010       C  0.19173406  0.17788008  0.34565548     0.83900
O1011       O  0.18394303  0.19608300  0.32537048    -0.66700
Ni1012     Ni  0.18301170  0.29388913  0.31492152     1.27400
Ni1013     Ni  0.18922784  0.26484177  0.42369100     1.26100
H1014       H  0.17337527  0.22726128  0.41154455     0.38400
O1015       O  0.20134146  0.18398833  0.87958307    -0.81500
O1016       O  0.19298968  0.30274653  0.93810394    -0.66200
O1017       O  0.18543716  0.23035389  0.90649415    -1.12800
C1018       C  0.18666462  0.25385440  0.73831553     1.05400
O1019       O  0.18613978  0.32137183  0.86544253    -0.79400
O1020       O  0.16455513  0.28398541  0.84170190    -0.67000
Ni1021     Ni  0.19606662  0.20264458  0.94044774     1.34900
C1022       C  0.15900481  0.26097371  0.83490941     0.84100
O1023       O  0.18481419  0.26073085  0.99316615    -0.80000
O1024       O  0.19149983  0.21812486  0.00432636    -0.90200
C1025       C  0.19046841  0.32286119  0.91070088     0.83700
O1026       O  0.21596526  0.21846049  0.94286744    -0.68400
O1027       O  0.18023930  0.27431170  0.75565039    -0.87700
C1028       C  0.21996875  0.24248729  0.94828415     0.84500
C1029       C  0.18730835  0.24058180  0.02120697     1.06100
H1030       H  0.20538276  0.27203060  0.84808875     0.37900
O1031       O  0.19449621  0.26944421  0.85263030    -1.10400
O1032       O  0.16744984  0.24090462  0.82612031    -0.67000
Ni1033     Ni  0.18916672  0.23376147  0.83678555     1.26300
O1034       O  0.21091438  0.26169917  0.94015101    -0.67300
O1035       O  0.19339734  0.23755302  0.76690409    -0.79600
C1036       C  0.19238344  0.17958015  0.84276320     0.83900
O1037       O  0.18415668  0.19781360  0.82474162    -0.66700
Ni1038     Ni  0.18355549  0.29551533  0.81452480     1.27400
Ni1039     Ni  0.18957461  0.26612374  0.92337042     1.26100
H1040       H  0.17464255  0.22720477  0.91188861     0.38400
O1041       O  0.05280352  0.68293608  0.48660448    -0.81500
O1042       O  0.05798812  0.80294765  0.43981067    -0.66200
O1043       O  0.06784575  0.73031925  0.46176264    -1.12800
C1044       C  0.06187817  0.75359825  0.63404135     1.05400
O1045       O  0.07416217  0.81381980  0.49983803    -0.79400
O1046       O  0.08825976  0.78103166  0.56450442    -0.67000
Ni1047     Ni  0.05806882  0.70237799  0.42645400     1.34900
C1048       C  0.09438249  0.75872493  0.55612337     0.84100
O1049       O  0.06636882  0.76292228  0.37801824    -0.80000
O1050       O  0.06295082  0.71918923  0.36396266    -0.90200
C1051       C  0.06495431  0.82053101  0.46531962     0.83700
O1052       O  0.03773571  0.71645553  0.42157200    -0.68400
O1053       O  0.06238256  0.77762254  0.61948097    -0.87700
C1054       C  0.03277623  0.74008116  0.42051128     0.84500
C1055       C  0.06552132  0.74281497  0.34895051     1.06100
H1056       H  0.04796286  0.76779291  0.52504771     0.37900
O1057       O  0.05888315  0.76695924  0.51952223    -1.10400
O1058       O  0.08673955  0.73897922  0.54039353    -0.67000
Ni1059     Ni  0.06517708  0.73163841  0.53256609     1.26300
O1060       O  0.04100606  0.75985708  0.43363102    -0.67300
O1061       O  0.06265404  0.73395385  0.60412397    -0.79600
C1062       C  0.06196521  0.67779467  0.52264714     0.83900
O1063       O  0.07050496  0.69564020  0.54081279    -0.66700
Ni1064     Ni  0.06795135  0.79464138  0.55814993     1.27400
Ni1065     Ni  0.06250962  0.76600737  0.44846662     1.26100
H1066       H  0.07865519  0.72861342  0.45469493     0.38400
O1067       O  0.04939737  0.68574765  0.99330705    -0.81500
O1068       O  0.05533026  0.80345851  0.93922752    -0.66200
O1069       O  0.06545754  0.73130564  0.96403486    -1.12800
C1070       C  0.06328605  0.75794220  0.13483670     1.05400
O1071       O  0.07306669  0.81537912  0.99338247    -0.79400
O1072       O  0.08891847  0.78291318  0.05249054    -0.67000
Ni1073     Ni  0.05499100  0.70309664  0.93141614     1.34900
C1074       C  0.09408074  0.75967324  0.04757470     0.84100
O1075       O  0.06194181  0.76225227  0.87803255    -0.80000
O1076       O  0.05988633  0.71805573  0.86719267    -0.90200
C1077       C  0.06281234  0.82145234  0.96178671     0.83700
O1078       O  0.03501822  0.71816774  0.92585808    -0.68400
O1079       O  0.06538358  0.78140903  0.11868852    -0.87700
C1080       C  0.03011000  0.74173929  0.92821707     0.84500
C1081       C  0.06128427  0.74161450  0.85021570     1.06100
H1082       H  0.04751526  0.77146050  0.02922764     0.37900
O1083       O  0.05822670  0.76950148  0.02097946    -1.10400
O1084       O  0.08557492  0.73951960  0.04053384    -0.67000
Ni1085     Ni  0.06369190  0.73390276  0.03518478     1.26300
O1086       O  0.03840022  0.76108715  0.94240445    -0.67300
O1087       O  0.06196215  0.73776099  0.10641363    -0.79600
C1088       C  0.05872918  0.68013462  0.02848205     0.83900
O1089       O  0.06795362  0.69747294  0.04508391    -0.66700
Ni1090     Ni  0.06883432  0.79733214  0.05463089     1.27400
Ni1091     Ni  0.06009267  0.76684457  0.94938691     1.26100
H1092       H  0.07614872  0.72931506  0.95563907     0.38400
O1093       O  0.20308500  0.68604594  0.14504575    -0.81500
O1094       O  0.19568646  0.80351860  0.19836786    -0.66200
O1095       O  0.18684452  0.73078980  0.17267121    -1.12800
C1096       C  0.19208659  0.75869753  0.00181058     1.05400
O1097       O  0.17821733  0.81222083  0.14159493    -0.79400
O1098       O  0.16523268  0.78165941  0.07208606    -0.67000
Ni1099     Ni  0.19689413  0.70276924  0.20637963     1.34900
C1100       C  0.15946821  0.75900726  0.08026028     0.84100
O1101       O  0.18903877  0.76164112  0.25906826    -0.80000
O1102       O  0.19139645  0.71745346  0.26997426    -0.90200
C1103       C  0.18783538  0.82024673  0.17371734     0.83700
O1104       O  0.21672726  0.71818591  0.21371167    -0.68400
O1105       O  0.19127987  0.78238845  0.01796512    -0.87700
C1106       C  0.22166685  0.74181650  0.21252364     0.84500
C1107       C  0.18964001  0.74089543  0.28679414     1.06100
H1108       H  0.20556490  0.77083238  0.11034769     0.37900
O1109       O  0.19471026  0.76903649  0.11672746    -1.10400
O1110       O  0.16738845  0.73945238  0.09536164    -0.67000
Ni1111     Ni  0.18923841  0.73372317  0.10158702     1.26300
O1112       O  0.21343045  0.76128084  0.19862214    -0.67300
O1113       O  0.19142133  0.73827691  0.03023720    -0.79600
C1114       C  0.19393939  0.67996204  0.10967927     0.83900
O1115       O  0.18510154  0.69721971  0.09078374    -0.66700
Ni1116     Ni  0.18505223  0.79681153  0.08082409     1.27400
Ni1117     Ni  0.19176938  0.76643580  0.18806039     1.26100
H1118       H  0.17608784  0.72848156  0.17991981     0.38400
O1119       O  0.20368885  0.68442229  0.64922437    -0.81500
O1120       O  0.19772901  0.80380155  0.69451909    -0.66200
O1121       O  0.18788022  0.73087772  0.67416589    -1.12800
C1122       C  0.19177444  0.75443382  0.50157502     1.05400
O1123       O  0.18051390  0.81400505  0.63736470    -0.79400
O1124       O  0.16566770  0.78088655  0.57807292    -0.67000
Ni1125     Ni  0.19793957  0.70328439  0.70936111     1.34900
C1126       C  0.16001866  0.75829687  0.58717841     0.84100
O1127       O  0.19062471  0.76367765  0.75785174    -0.80000
O1128       O  0.19287482  0.71976120  0.77194206    -0.90200
C1129       C  0.19010796  0.82101538  0.67038334     0.83700
O1130       O  0.21791359  0.71840691  0.71396693    -0.68400
O1131       O  0.19026758  0.77826268  0.51610887    -0.87700
C1132       C  0.22307337  0.74181812  0.71085150     0.84500
C1133       C  0.19104246  0.74353896  0.78703406     1.06100
H1134       H  0.20654555  0.76940698  0.60777105     0.37900
O1135       O  0.19574081  0.76786589  0.61509093    -1.10400
O1136       O  0.16812202  0.73811245  0.59738326    -0.67000
Ni1137     Ni  0.18994046  0.73209244  0.60302935     1.26300
O1138       O  0.21486425  0.76117609  0.69630843    -0.67300
O1139       O  0.19192243  0.73458747  0.53132356    -0.79600
C1140       C  0.19453649  0.67847328  0.61369442     0.83900
O1141       O  0.18539795  0.69549565  0.59571978    -0.66700
Ni1142     Ni  0.18581326  0.79515331  0.57823406     1.27400
Ni1143     Ni  0.19321234  0.76676789  0.68657884     1.26100
H1144       H  0.17714488  0.72899610  0.68222281     0.38400
O1145       O  0.05075431  0.57071952  0.15094955    -0.81500
O1146       O  0.05575273  0.45152874  0.20161916    -0.66200
O1147       O  0.06593402  0.52400959  0.17797188    -1.12800
C1148       C  0.05998031  0.49841620  0.00666322     1.05400
O1149       O  0.07263107  0.44111612  0.14425379    -0.79400
O1150       O  0.08632291  0.47262438  0.07653658    -0.67000
Ni1151     Ni  0.05599682  0.55208943  0.21183787     1.34900
C1152       C  0.09245169  0.49509204  0.08388280     0.84100
O1153       O  0.06350222  0.49208163  0.26303688    -0.80000
O1154       O  0.06044177  0.53589436  0.27521134    -0.90200
C1155       C  0.06321985  0.43409994  0.17781096     0.83700
O1156       O  0.03581263  0.53775723  0.21557079    -0.68400
O1157       O  0.06025845  0.47456627  0.02243731    -0.87700
C1158       C  0.03082114  0.51415403  0.21574740     0.84500
C1159       C  0.06240396  0.51236948  0.29150577     1.06100
H1160       H  0.04631244  0.48570079  0.11468508     0.37900
O1161       O  0.05720576  0.48672708  0.12103824    -1.10400
O1162       O  0.08502335  0.51486839  0.10014730    -0.67000
Ni1163     Ni  0.06341616  0.52191804  0.10701133     1.26300
O1164       O  0.03900883  0.49449422  0.20317458    -0.67300
O1165       O  0.06099470  0.51845196  0.03564792    -0.79600
C1166       C  0.05993445  0.57576919  0.11528478     0.83900
O1167       O  0.06856910  0.55809801  0.09743993    -0.66700
Ni1168     Ni  0.06615509  0.45865002  0.08447570     1.27400
Ni1169     Ni  0.06044683  0.48837896  0.19210859     1.26100
H1170       H  0.07671938  0.52587640  0.18554559     0.38400
O1171       O  0.05075824  0.56954992  0.64725563    -0.81500
O1172       O  0.05897161  0.45034121  0.70323835    -0.66200
O1173       O  0.06629704  0.52356682  0.67737873    -1.12800
C1174       C  0.06008783  0.49598653  0.50658756     1.05400
O1175       O  0.07496939  0.44114200  0.64280385    -0.79400
O1176       O  0.08658840  0.47225199  0.57187761    -0.67000
Ni1177     Ni  0.05447324  0.55019103  0.70890436     1.34900
C1178       C  0.09314091  0.49392085  0.58294314     0.84100
O1179       O  0.06627020  0.49219107  0.76250252    -0.80000
O1180       O  0.05744102  0.53361437  0.77333739    -0.90200
C1181       C  0.06620593  0.43342276  0.67748978     0.83700
O1182       O  0.03484696  0.53364956  0.70349542    -0.68400
O1183       O  0.05949942  0.47234070  0.52305751    -0.87700
C1184       C  0.03126521  0.50975540  0.71266797     0.84500
C1185       C  0.06218759  0.51143938  0.79051889     1.06100
H1186       H  0.04716584  0.48409386  0.61698378     0.37900
O1187       O  0.05812917  0.48523551  0.62188356    -1.10400
O1188       O  0.08588323  0.51323590  0.60190088    -0.67000
Ni1189     Ni  0.06416160  0.52033669  0.60657491     1.26300
O1190       O  0.04079944  0.49102208  0.70788360    -0.67300
O1191       O  0.06212765  0.51605581  0.53506060    -0.79600
C1192       C  0.06026980  0.57412076  0.61213949     0.83900
O1193       O  0.06918220  0.55637485  0.59607622    -0.66700
Ni1194     Ni  0.06688920  0.45736881  0.58412009     1.27400
Ni1195     Ni  0.06226257  0.48749575  0.69251648     1.26100
H1196       H  0.07689009  0.52716412  0.68558214     0.38400
O1197       O  0.20282534  0.56702677  0.49767905    -0.81500
O1198       O  0.19746637  0.44810873  0.45009026    -0.66200
O1199       O  0.18714270  0.52043131  0.47135842    -1.12800
C1200       C  0.18997147  0.49590120  0.64310559     1.05400
O1201       O  0.18008690  0.43624409  0.50510165    -0.79400
O1202       O  0.16447382  0.46954378  0.56208884    -0.67000
Ni1203     Ni  0.19710464  0.54845926  0.43708785     1.34900
C1204       C  0.15897394  0.49242218  0.55494319     0.84100
O1205       O  0.18992825  0.48825183  0.38743811    -0.80000
O1206       O  0.19196756  0.53221755  0.37433485    -0.90200
C1207       C  0.18996944  0.43011864  0.47264974     0.83700
O1208       O  0.21715831  0.53393738  0.43184690    -0.68400
O1209       O  0.18827953  0.47222535  0.62775987    -0.87700
C1210       C  0.22235012  0.51053102  0.43410069     0.84500
C1211       C  0.19017458  0.50850685  0.35860618     1.06100
H1212       H  0.20572785  0.48154770  0.53781834     0.37900
O1213       O  0.19495969  0.48312691  0.52986165    -1.10400
O1214       O  0.16726490  0.51275253  0.54717459    -0.67000
Ni1215     Ni  0.18911845  0.51878683  0.54236783     1.26300
O1216       O  0.21429838  0.49099942  0.44909686    -0.67300
O1217       O  0.19090150  0.51576973  0.61370250    -0.79600
C1218       C  0.19355443  0.57270130  0.53273425     0.83900
O1219       O  0.18460089  0.55528387  0.55046680    -0.66700
Ni1220     Ni  0.18461966  0.45546207  0.56488270     1.27400
Ni1221     Ni  0.19262779  0.48479643  0.45850364     1.26100
H1222       H  0.17641112  0.52207620  0.46293426     0.38400
O1223       O  0.20216802  0.56783871  0.99509353    -0.81500
O1224       O  0.19687592  0.45009876  0.94965201    -0.66200
O1225       O  0.18591133  0.52182386  0.97199968    -1.12800
C1226       C  0.18851401  0.49681791  0.14263245     1.05400
O1227       O  0.17897782  0.43745808  0.00247094    -0.79400
O1228       O  0.16250038  0.47182099  0.05484006    -0.67000
Ni1229     Ni  0.19520375  0.54990978  0.93573761     1.34900
C1230       C  0.15781151  0.49550975  0.05408251     0.84100
O1231       O  0.18960591  0.49020588  0.88710751    -0.80000
O1232       O  0.18866508  0.53421982  0.87418414    -0.90200
C1233       C  0.18916248  0.43185641  0.97052847     0.83700
O1234       O  0.21508164  0.53510168  0.92473766    -0.68400
O1235       O  0.18485584  0.47390784  0.12652819    -0.87700
C1236       C  0.22075696  0.51215889  0.93053917     0.84500
C1237       C  0.18847573  0.51039380  0.85836131     1.06100
H1238       H  0.20433606  0.48157259  0.03830962     0.37900
O1239       O  0.19367209  0.48411322  0.02976015    -1.10400
O1240       O  0.16678784  0.51535128  0.05142018    -0.67000
Ni1241     Ni  0.18869382  0.51999479  0.04303430     1.26300
O1242       O  0.21335881  0.49339286  0.95140774    -0.67300
O1243       O  0.19142578  0.51641530  0.11390880    -0.79600
C1244       C  0.19333361  0.57396956  0.03097459     0.83900
O1245       O  0.18497174  0.55672491  0.05212173    -0.66700
Ni1246     Ni  0.18234374  0.45698137  0.06287134     1.27400
Ni1247     Ni  0.19170497  0.48645801  0.95845767     1.26100
H1248       H  0.17507317  0.52305351  0.96493680     0.38400
O1249       O  0.42860959  0.56596317  0.12357259    -0.81500
O1250       O  0.43263686  0.44793947  0.16431940    -0.66200
O1251       O  0.44389551  0.51952133  0.14379485    -1.12800
C1252       C  0.43726986  0.49651356  0.97232849     1.05400
O1253       O  0.44978194  0.43550130  0.10793614    -0.79400
O1254       O  0.46470958  0.46975736  0.04413454    -0.67000
Ni1255     Ni  0.43508733  0.54717453  0.18211428     1.34900
C1256       C  0.46983393  0.49335683  0.04527114     0.84100
O1257       O  0.44016249  0.48657691  0.22794453    -0.80000
O1258       O  0.44092423  0.53032066  0.24344734    -0.90200
C1259       C  0.44099643  0.43038433  0.14471411     0.83700
O1260       O  0.41486382  0.53325720  0.18901656    -0.68400
O1261       O  0.43940369  0.47270637  0.98676109    -0.87700
C1262       C  0.40862996  0.51094458  0.18088459     0.84500
C1263       C  0.44109644  0.50624995  0.25784355     1.06100
H1264       H  0.42402616  0.48145238  0.07820703     0.37900
O1265       O  0.43485509  0.48306573  0.08529320    -1.10400
O1266       O  0.46174415  0.51275519  0.05983609    -0.67000
Ni1267     Ni  0.44033629  0.51882703  0.07279577     1.26300
O1268       O  0.41602619  0.49120759  0.16416789    -0.67300
O1269       O  0.43672700  0.51636006  0.00196819    -0.79600
C1270       C  0.43775713  0.57294457  0.08919097     0.83900
O1271       O  0.44509859  0.55559625  0.06490776    -0.66700
Ni1272     Ni  0.44438218  0.45547351  0.04873367     1.27400
Ni1273     Ni  0.43764935  0.48417345  0.15634545     1.26100
H1274       H  0.45482169  0.52040712  0.14967069     0.38400
O1275       O  0.42934936  0.56776368  0.61806011    -0.81500
O1276       O  0.43144278  0.45132836  0.66816047    -0.66200
O1277       O  0.44394205  0.52203303  0.64325890    -1.12800
C1278       C  0.43860827  0.49504851  0.47304711     1.05400
O1279       O  0.44940612  0.43807788  0.61584579    -0.79400
O1280       O  0.46471145  0.46945353  0.54762643    -0.67000
Ni1281     Ni  0.43525678  0.55079354  0.67871700     1.34900
C1282       C  0.47011643  0.49283936  0.54778530     0.84100
O1283       O  0.43914799  0.49133105  0.72955324    -0.80000
O1284       O  0.44050858  0.53533648  0.74171568    -0.90200
C1285       C  0.43994387  0.43323279  0.65099935     0.83700
O1286       O  0.41486637  0.53782707  0.68552079    -0.68400
O1287       O  0.43963882  0.47139665  0.48979880    -0.87700
C1288       C  0.40833420  0.51572698  0.67780888     0.84500
C1289       C  0.44027649  0.51162877  0.75801750     1.06100
H1290       H  0.42408425  0.48344601  0.57889537     0.37900
O1291       O  0.43487252  0.48477188  0.58682929    -1.10400
O1292       O  0.46234983  0.51273306  0.56187508    -0.67000
Ni1293     Ni  0.44097851  0.51993627  0.57188891     1.26300
O1294       O  0.41562547  0.49544033  0.66325660    -0.67300
O1295       O  0.43819670  0.51569899  0.50082809    -0.79600
C1296       C  0.43914235  0.57426439  0.58545475     0.83900
O1297       O  0.44629971  0.55647445  0.56162457    -0.66700
Ni1298     Ni  0.44427511  0.45591695  0.55385666     1.27400
Ni1299     Ni  0.43712102  0.48728350  0.65798234     1.26100
H1300       H  0.45482315  0.52259944  0.65007672     0.38400
O1301       O  0.32167497  0.56682439  0.26216866    -0.81500
O1302       O  0.31653219  0.44735161  0.21317585    -0.66200
O1303       O  0.30731536  0.51961280  0.23688365    -1.12800
C1304       C  0.31358219  0.49263010  0.40746798     1.05400
O1305       O  0.29958196  0.43534308  0.27009316    -0.79400
O1306       O  0.28651382  0.46776199  0.34018228    -0.67000
Ni1307     Ni  0.31821388  0.54689519  0.20248185     1.34900
C1308       C  0.28095992  0.49088662  0.33633496     0.84100
O1309       O  0.30921542  0.48731456  0.15216779    -0.80000
O1310       O  0.31566739  0.52972101  0.13896626    -0.90200
C1311       C  0.30821510  0.42974728  0.23339625     0.83700
O1312       O  0.33818140  0.53269816  0.21053373    -0.68400
O1313       O  0.31280840  0.46889692  0.39137910    -0.87700
C1314       C  0.34310878  0.50917004  0.21100806     0.84500
C1315       C  0.31187965  0.50684198  0.12308998     1.06100
H1316       H  0.32655198  0.48043496  0.30007112     0.37900
O1317       O  0.31568127  0.48176776  0.29363302    -1.10400
O1318       O  0.28846994  0.51010983  0.31751310    -0.67000
Ni1319     Ni  0.30999841  0.51712527  0.30812648     1.26300
O1320       O  0.33431062  0.48907635  0.21333820    -0.67300
O1321       O  0.31283457  0.51308941  0.37921936    -0.79600
C1322       C  0.31188914  0.57196291  0.29562035     0.83900
O1323       O  0.30479545  0.55349617  0.31808649    -0.66700
Ni1324     Ni  0.30647122  0.45335941  0.32951043     1.27400
Ni1325     Ni  0.31248091  0.48383933  0.22288726     1.26100
H1326       H  0.29655446  0.52193941  0.22940322     0.38400
O1327       O  0.31987383  0.56760082  0.75976460    -0.81500
O1328       O  0.31858741  0.44838104  0.71575060    -0.66200
O1329       O  0.30640554  0.51978342  0.73498699    -1.12800
C1330       C  0.31060193  0.49455650  0.90673321     1.05400
O1331       O  0.29961321  0.43669908  0.76592291    -0.79400
O1332       O  0.28456582  0.46838438  0.83393175    -0.67000
Ni1333     Ni  0.31571523  0.54835149  0.69982602     1.34900
C1334       C  0.27911940  0.49161754  0.83098422     0.84100
O1335       O  0.31203499  0.48755698  0.65146398    -0.80000
O1336       O  0.31247820  0.53138168  0.63688093    -0.90200
C1337       C  0.30928823  0.43100894  0.73197908     0.83700
O1338       O  0.33617545  0.53605831  0.70155119    -0.68400
O1339       O  0.30968218  0.47072535  0.89077109    -0.87700
C1340       C  0.34254337  0.51404358  0.71023036     0.84500
C1341       C  0.31211385  0.50746736  0.62195030     1.06100
H1342       H  0.32538010  0.48211336  0.80356130     0.37900
O1343       O  0.31469358  0.48318010  0.79421126    -1.10400
O1344       O  0.28685611  0.51102563  0.81408354    -0.67000
Ni1345     Ni  0.30839641  0.51830779  0.80657530     1.26300
O1346       O  0.33501934  0.49297816  0.71996560    -0.67300
O1347       O  0.31055498  0.51484261  0.87791206    -0.79600
C1348       C  0.30988694  0.57295411  0.79236311     0.83900
O1349       O  0.30276951  0.55454723  0.81487821    -0.66700
Ni1350     Ni  0.30488652  0.45471531  0.82751562     1.27400
Ni1351     Ni  0.31329921  0.48471213  0.72304771     1.26100
H1352       H  0.29563417  0.52026337  0.72654914     0.38400
O1353       O  0.42691706  0.19081308  0.26709927    -0.81500
O1354       O  0.43073220  0.30778504  0.21176988    -0.66200
O1355       O  0.44110751  0.23629206  0.23686349    -1.12800
C1356       C  0.43777609  0.26466731  0.40748177     1.05400
O1357       O  0.44911713  0.31989439  0.26395527    -0.79400
O1358       O  0.46361522  0.28869911  0.33383327    -0.67000
Ni1359     Ni  0.43068979  0.20793495  0.20462662     1.34900
C1360       C  0.46912350  0.26557399  0.32947664     0.84100
O1361       O  0.43709189  0.26710561  0.15117700    -0.80000
O1362       O  0.43377778  0.22337359  0.13975873    -0.90200
C1363       C  0.43987905  0.32527741  0.22829784     0.83700
O1364       O  0.41046716  0.22160614  0.20695226    -0.68400
O1365       O  0.43829404  0.28824492  0.39017784    -0.87700
C1366       C  0.40500965  0.24471913  0.21048731     0.84500
C1367       C  0.43586915  0.24675429  0.12299734     1.06100
H1368       H  0.42271222  0.27562885  0.30196725     0.37900
O1369       O  0.43343964  0.27427843  0.29350329    -1.10400
O1370       O  0.46121224  0.24619920  0.31342215    -0.67000
Ni1371     Ni  0.43959298  0.23923276  0.30840161     1.26300
O1372       O  0.41333842  0.26518452  0.21687584    -0.67300
O1373       O  0.43808927  0.24392352  0.37990156    -0.79600
C1374       C  0.43763649  0.18487596  0.29712108     0.83900
O1375       O  0.44514999  0.20314963  0.31849406    -0.66700
Ni1376     Ni  0.44341906  0.30295725  0.32605812     1.27400
Ni1377     Ni  0.43522247  0.27147502  0.22228059     1.26100
H1378       H  0.45179484  0.23462168  0.22803027     0.38400
O1379       O  0.42763452  0.19169973  0.75836381    -0.81500
O1380       O  0.43139658  0.31017802  0.71465656    -0.66200
O1381       O  0.44265155  0.23857263  0.73751289    -1.12800
C1382       C  0.43586601  0.26354785  0.90784704     1.05400
O1383       O  0.44924111  0.32217316  0.76920596    -0.79400
O1384       O  0.46370989  0.28922384  0.83576791    -0.67000
Ni1385     Ni  0.43381223  0.21048838  0.69963508     1.34900
C1386       C  0.46859584  0.26558211  0.83631052     0.84100
O1387       O  0.43922880  0.27095386  0.65212931    -0.80000
O1388       O  0.43936412  0.22711061  0.63793403    -0.90200
C1389       C  0.44013295  0.32770679  0.73333331     0.83700
O1390       O  0.41350681  0.22390004  0.69333611    -0.68400
O1391       O  0.43836565  0.28709661  0.89227576    -0.87700
C1392       C  0.40725711  0.24620748  0.70060441     0.84500
C1393       C  0.44011895  0.25100796  0.62285147     1.06100
H1394       H  0.42281987  0.27734878  0.80115424     0.37900
O1395       O  0.43362669  0.27554120  0.79436394    -1.10400
O1396       O  0.46038377  0.24605364  0.82235576    -0.67000
Ni1397     Ni  0.43895035  0.23992648  0.80842593     1.26300
O1398       O  0.41481536  0.26641207  0.71507898    -0.67300
O1399       O  0.43509931  0.24336784  0.87891760    -0.79600
C1400       C  0.43687189  0.18530559  0.79299405     0.83900
O1401       O  0.44368980  0.20318366  0.81804609    -0.66700
Ni1402     Ni  0.44351472  0.30345997  0.82957232     1.27400
Ni1403     Ni  0.43644924  0.27386540  0.72354498     1.26100
H1404       H  0.45357947  0.23771769  0.73216906     0.38400
O1405       O  0.31845568  0.18952207  0.11860618    -0.81500
O1406       O  0.31580171  0.30755523  0.16608631    -0.66200
O1407       O  0.30406803  0.23684422  0.13874213    -1.12800
C1408       C  0.31142405  0.26414419  0.97002160     1.05400
O1409       O  0.29867750  0.32129725  0.11045767    -0.79400
O1410       O  0.28355087  0.28869166  0.04510420    -0.67000
Ni1411     Ni  0.31208881  0.20816754  0.17697734     1.34900
C1412       C  0.27878469  0.26493823  0.04253175     0.84100
O1413       O  0.30736931  0.26808904  0.22547963    -0.80000
O1414       O  0.30653263  0.22434751  0.23912787    -0.90200
C1415       C  0.30764395  0.32570085  0.14723384     0.83700
O1416       O  0.33249096  0.22088559  0.18454416    -0.68400
O1417       O  0.30853759  0.28734544  0.98614015    -0.87700
C1418       C  0.33913535  0.24298515  0.17859461     0.84500
C1419       C  0.30643787  0.24816472  0.25468242     1.06100
H1420       H  0.32456964  0.27677836  0.07803169     0.37900
O1421       O  0.31372168  0.27468276  0.08414168    -1.10400
O1422       O  0.28723309  0.24527450  0.05300549    -0.67000
Ni1423     Ni  0.30846235  0.23927950  0.06823261     1.26300
O1424       O  0.33201372  0.26360898  0.16398175    -0.67300
O1425       O  0.31275326  0.24374893  0.99824048    -0.79600
C1426       C  0.31003852  0.18456141  0.08107196     0.83900
O1427       O  0.30372756  0.20292637  0.05622914    -0.66700
Ni1428     Ni  0.30387572  0.30295729  0.04968238     1.27400
Ni1429     Ni  0.31048895  0.27175671  0.15467608     1.26100
H1430       H  0.29307807  0.23620079  0.14293798     0.38400
O1431       O  0.32099848  0.19081686  0.61941987    -0.81500
O1432       O  0.31645039  0.30886944  0.66168506    -0.66200
O1433       O  0.30551440  0.23683188  0.64188834    -1.12800
C1434       C  0.30774598  0.26117383  0.47049038     1.05400
O1435       O  0.29754725  0.32089873  0.61120027    -0.79400
O1436       O  0.28146779  0.28564062  0.55281587    -0.67000
Ni1437     Ni  0.31538846  0.20938409  0.67860082     1.34900
C1438       C  0.27717499  0.26162069  0.55073042     0.84100
O1439       O  0.31023718  0.26971086  0.72591874    -0.80000
O1440       O  0.31056872  0.22594255  0.74068206    -0.90200
C1441       C  0.30720595  0.32625454  0.64575481     0.83700
O1442       O  0.33556916  0.22371027  0.68045463    -0.68400
O1443       O  0.30464775  0.28442621  0.48629961    -0.87700
C1444       C  0.34138812  0.24603997  0.66990962     0.84500
C1445       C  0.30978846  0.24982288  0.75550186     1.06100
H1446       H  0.32339134  0.27688003  0.57335819     0.37900
O1447       O  0.31281042  0.27421012  0.58279168    -1.10400
O1448       O  0.28619970  0.24247586  0.55994407    -0.67000
Ni1449     Ni  0.30792677  0.23808407  0.57040510     1.26300
O1450       O  0.33340277  0.26604663  0.65751067    -0.67300
O1451       O  0.31037582  0.24140409  0.49927022    -0.79600
C1452       C  0.31146204  0.18375031  0.58624914     0.83900
O1453       O  0.30382067  0.20099672  0.56231433    -0.66700
Ni1454     Ni  0.30144296  0.30125859  0.55009733     1.27400
Ni1455     Ni  0.31155812  0.27247681  0.65408362     1.26100
H1456       H  0.29471717  0.23547329  0.64933301     0.38400
O1457       O  0.42930474  0.69151092  0.01432184    -0.81500
O1458       O  0.43110731  0.81047032  0.97897303    -0.66200
O1459       O  0.44388546  0.73946735  0.99785577    -1.12800
C1460       C  0.43859306  0.76141793  0.16897056     1.05400
O1461       O  0.44915983  0.82355045  0.03197540    -0.79400
O1462       O  0.46527203  0.78905580  0.09036827    -0.67000
Ni1463     Ni  0.43573464  0.71172276  0.95769809     1.34900
C1464       C  0.47014464  0.76546181  0.09255962     0.84100
O1465       O  0.43921601  0.77303497  0.91462572    -0.80000
O1466       O  0.44155768  0.72975720  0.89789765    -0.90200
C1467       C  0.43999771  0.82819628  0.99580356     0.83700
O1468       O  0.41529609  0.72442130  0.95034959    -0.68400
O1469       O  0.44149096  0.78497618  0.15414125    -0.87700
C1470       C  0.40849574  0.74582750  0.96111486     0.84500
C1471       C  0.44098109  0.75388927  0.88418541     1.06100
H1472       H  0.42393498  0.77701300  0.06485727     0.37900
O1473       O  0.43468594  0.77529094  0.05691664    -1.10400
O1474       O  0.46165257  0.74555958  0.08284632    -0.67000
Ni1475     Ni  0.44022460  0.73945843  0.06872767     1.26300
O1476       O  0.41551135  0.76577606  0.97920322    -0.67300
O1477       O  0.43661398  0.74173123  0.13946419    -0.79600
C1478       C  0.43805189  0.68500448  0.05018817     0.83900
O1479       O  0.44491086  0.70254395  0.07604916    -0.66700
Ni1480     Ni  0.44497767  0.80289205  0.09167637     1.27400
Ni1481     Ni  0.43697115  0.77456701  0.98610734     1.26100
H1482       H  0.45482336  0.73943278  0.99246099     0.38400
O1483       O  0.42878108  0.69304984  0.52350586    -0.81500
O1484       O  0.43208161  0.80946560  0.47418661    -0.66200
O1485       O  0.44378141  0.73861787  0.49986529    -1.12800
C1486       C  0.43800251  0.76629405  0.66931456     1.05400
O1487       O  0.45025392  0.82212765  0.52690222    -0.79400
O1488       O  0.46460316  0.79061909  0.59657624    -0.67000
Ni1489     Ni  0.43513869  0.70999299  0.46342498     1.34900
C1490       C  0.46981767  0.76719374  0.59664681     0.84100
O1491       O  0.43962409  0.76948537  0.41336530    -0.80000
O1492       O  0.44065201  0.72555877  0.40072122    -0.90200
C1493       C  0.44083300  0.82725623  0.49172064     0.83700
O1494       O  0.41496458  0.72313769  0.45584221    -0.68400
O1495       O  0.43931770  0.78986896  0.65242138    -0.87700
C1496       C  0.40846268  0.74513309  0.46345499     0.84500
C1497       C  0.44046167  0.74933110  0.38462410     1.06100
H1498       H  0.42403665  0.77775310  0.56266469     0.37900
O1499       O  0.43483658  0.77612454  0.55547226    -1.10400
O1500       O  0.46187525  0.74735950  0.58266247    -0.67000
Ni1501     Ni  0.44042678  0.74087043  0.57102870     1.26300
O1502       O  0.41575626  0.76556876  0.47800660    -0.67300
O1503       O  0.43732190  0.74557622  0.64167295    -0.79600
C1504       C  0.43831362  0.68645248  0.55695334     0.83900
O1505       O  0.44523153  0.70419476  0.58209353    -0.66700
Ni1506     Ni  0.44448652  0.80485283  0.58865610     1.27400
Ni1507     Ni  0.43733957  0.77347278  0.48464266     1.26100
H1508       H  0.45468978  0.73795160  0.49399810     0.38400
O1509       O  0.32159861  0.68744257  0.37901978    -0.81500
O1510       O  0.31815987  0.80580750  0.42905311    -0.66200
O1511       O  0.30711108  0.73421696  0.40369953    -1.12800
C1512       C  0.31284861  0.76265220  0.23401879     1.05400
O1513       O  0.29975218  0.81687796  0.37667668    -0.79400
O1514       O  0.28555144  0.78603821  0.30725150    -0.67000
Ni1515     Ni  0.31652868  0.70577765  0.43915351     1.34900
C1516       C  0.28052454  0.76248413  0.30744770     0.84100
O1517       O  0.31140641  0.76549833  0.49045542    -0.80000
O1518       O  0.31241634  0.72156649  0.50267139    -0.90200
C1519       C  0.30938501  0.82321133  0.41045842     0.83700
O1520       O  0.33681847  0.71944928  0.44059135    -0.68400
O1521       O  0.31075325  0.78598826  0.25093830    -0.87700
C1522       C  0.34273555  0.74210882  0.43372999     0.84500
C1523       C  0.31167350  0.74516248  0.51901231     1.06100
H1524       H  0.32628802  0.77429337  0.34023609     0.37900
O1525       O  0.31553171  0.77227641  0.34785729    -1.10400
O1526       O  0.28864316  0.74289072  0.32114559    -0.67000
Ni1527     Ni  0.31016853  0.73698064  0.33234370     1.26300
O1528       O  0.33489329  0.76267575  0.42438244    -0.67300
O1529       O  0.31342953  0.74178503  0.26139102    -0.79600
C1530       C  0.31228647  0.68228019  0.34389473     0.83900
O1531       O  0.30532032  0.70063469  0.32096262    -0.66700
Ni1532     Ni  0.30558021  0.80059904  0.31475316     1.27400
Ni1533     Ni  0.31325200  0.76951172  0.41892097     1.26100
H1534       H  0.29624177  0.73290440  0.41013664     0.38400
O1535       O  0.31603714  0.68417044  0.89356035    -0.81500
O1536       O  0.31718358  0.80858197  0.92591057    -0.66200
O1537       O  0.30698961  0.73608974  0.90606376    -1.12800
C1538       C  0.31605168  0.75997150  0.73396260     1.05400
O1539       O  0.30115212  0.81959222  0.86515149    -0.79400
O1540       O  0.28899717  0.78680423  0.79408982    -0.67000
Ni1541     Ni  0.31807942  0.71049716  0.94405804     1.34900
C1542       C  0.28269467  0.76441636  0.80053374     0.84100
O1543       O  0.30822158  0.76990101  0.98845281    -0.80000
O1544       O  0.32083419  0.73250085  0.00196515    -0.90200
C1545       C  0.30903875  0.82570672  0.90357322     0.83700
O1546       O  0.33707773  0.72193786  0.91717852    -0.68400
O1547       O  0.31616458  0.78394568  0.74883467    -0.87700
C1548       C  0.34281898  0.74474319  0.92433657     0.84500
C1549       C  0.31424744  0.75311184  0.01808831     1.06100
H1550       H  0.32786467  0.77319008  0.84333993     0.37900
O1551       O  0.31690246  0.77252098  0.84797172    -1.10400
O1552       O  0.28943337  0.74531607  0.82258224    -0.67000
Ni1553     Ni  0.31067667  0.73728834  0.83475295     1.26300
O1554       O  0.33441178  0.76511204  0.93129896    -0.67300
O1555       O  0.31424170  0.74014595  0.76346760    -0.79600
C1556       C  0.30909765  0.68154601  0.85205085     0.83900
O1557       O  0.30499009  0.70105346  0.82503324    -0.66700
Ni1558     Ni  0.30894291  0.80062914  0.80840827     1.27400
Ni1559     Ni  0.31267677  0.77194796  0.91809649     1.26100
H1560       H  0.29617611  0.73387947  0.91262978     0.38400
O1561       O  0.43602401  0.07282135  0.38823611    -0.81500
O1562       O  0.43267544  0.94853800  0.41916951    -0.66200
O1563       O  0.44382161  0.02037016  0.39785791    -1.12800
C1564       C  0.43781165  0.99670674  0.22654090     1.05400
O1565       O  0.44965222  0.93519250  0.36350163    -0.79400
O1566       O  0.46526494  0.97056887  0.30500951    -0.67000
Ni1567     Ni  0.43275581  0.04582592  0.43653302     1.34900
C1568       C  0.46970205  0.99448264  0.30172255     0.84100
O1569       O  0.44207593  0.98682917  0.48060001    -0.80000
O1570       O  0.42881629  0.02329438  0.49293834    -0.90200
C1571       C  0.44104979  0.93063210  0.40099731     0.83700
O1572       O  0.41385195  0.03545013  0.40650118    -0.68400
O1573       O  0.44123644  0.97344514  0.24146704    -0.87700
C1574       C  0.40793530  0.01261914  0.41252088     0.84500
C1575       C  0.43574403  0.00319764  0.50981577     1.06100
H1576       H  0.42377651  0.98066202  0.33333026     0.37900
O1577       O  0.43459418  0.98307677  0.33991663    -1.10400
O1578       O  0.46091030  0.01381842  0.31143514    -0.67000
Ni1579     Ni  0.43953722  0.01902150  0.32663983     1.26300
O1580       O  0.41619261  0.99209955  0.42017038    -0.67300
O1581       O  0.43535142  0.01604303  0.25619859    -0.79600
C1582       C  0.44107353  0.07505439  0.34405141     0.83900
O1583       O  0.44381329  0.05556878  0.31565639    -0.66700
Ni1584     Ni  0.44504095  0.95589094  0.30421907     1.27400
Ni1585     Ni  0.43797304  0.98460684  0.41022415     1.26100
H1586       H  0.45467216  0.02249606  0.40390823     0.38400
O1587       O  0.42860288  0.06868055  0.87110857    -0.81500
O1588       O  0.43214550  0.94986368  0.92147010    -0.66200
O1589       O  0.44304672  0.02146671  0.89517282    -1.12800
C1590       C  0.43764353  0.99303337  0.72599870     1.05400
O1591       O  0.45006404  0.93661989  0.86929553    -0.79400
O1592       O  0.46520468  0.96975543  0.80438875    -0.67000
Ni1593     Ni  0.43343371  0.04963962  0.93091788     1.34900
C1594       C  0.46983311  0.99355841  0.80193735     0.84100
O1595       O  0.43947645  0.98984584  0.98172241    -0.80000
O1596       O  0.43732413  0.03346533  0.99461732    -0.90200
C1597       C  0.44063545  0.93173981  0.90447986     0.83700
O1598       O  0.41310760  0.03592942  0.93014796    -0.68400
O1599       O  0.44065671  0.97005106  0.74331991    -0.87700
C1600       C  0.40736942  0.01310797  0.92377805     0.84500
C1601       C  0.43876177  0.00986264  0.01061750     1.06100
H1602       H  0.42394464  0.98057814  0.83212556     0.37900
O1603       O  0.43468784  0.98299653  0.83979339    -1.10400
O1604       O  0.46121064  0.01306746  0.81204988    -0.67000
Ni1605     Ni  0.43972231  0.01864306  0.82390199     1.26300
O1606       O  0.41541023  0.99258430  0.91626929    -0.67300
O1607       O  0.43619707  0.01372310  0.75325911    -0.79600
C1608       C  0.43775325  0.07380500  0.83572234     0.83900
O1609       O  0.44433611  0.05533737  0.81196261    -0.66700
Ni1610     Ni  0.44508065  0.95476504  0.80749490     1.27400
Ni1611     Ni  0.43712633  0.98599589  0.91057442     1.26100
H1612       H  0.45392848  0.02300217  0.90146463     0.38400
O1613       O  0.32188368  0.06632930  0.01069117    -0.81500
O1614       O  0.31535340  0.95074110  0.95530367    -0.66200
O1615       O  0.30604147  0.02243007  0.98179948    -1.12800
C1616       C  0.31140373  0.99382703  0.15181136     1.05400
O1617       O  0.29776489  0.93871723  0.01024948    -0.79400
O1618       O  0.28425573  0.97036294  0.08029364    -0.67000
Ni1619     Ni  0.31630581  0.05051365  0.94857497     1.34900
C1620       C  0.27890142  0.99362366  0.07639391     0.84100
O1621       O  0.30899655  0.99194239  0.89525625    -0.80000
O1622       O  0.31152203  0.03598757  0.88429425    -0.90200
C1623       C  0.30668729  0.93321858  0.97414885     0.83700
O1624       O  0.33620127  0.03571787  0.94530880    -0.68400
O1625       O  0.31017655  0.97028491  0.13482442    -0.87700
C1626       C  0.34159795  0.01258261  0.94950469     0.84500
C1627       C  0.30981076  0.01256076  0.86742966     1.06100
H1628       H  0.32472986  0.98230714  0.04476215     0.37900
O1629       O  0.31392637  0.98405224  0.03746780    -1.10400
O1630       O  0.28688380  0.01308734  0.06093153    -0.67000
Ni1631     Ni  0.30852523  0.01935974  0.05306377     1.26300
O1632       O  0.33327616  0.99256629  0.95961533    -0.67300
O1633       O  0.31105889  0.01449759  0.12402427    -0.79600
C1634       C  0.31177528  0.07343349  0.04162344     0.83900
O1635       O  0.30386737  0.05592865  0.06392137    -0.66700
Ni1636     Ni  0.30422135  0.95560959  0.07146173     1.27400
Ni1637     Ni  0.31137754  0.98713208  0.96640404     1.26100
H1638       H  0.29526714  0.02445457  0.97429764     0.38400
O1639       O  0.32166971  0.06689976  0.50315664    -0.81500
O1640       O  0.31866421  0.94860568  0.46124784    -0.66200
O1641       O  0.30680099  0.01991526  0.48164152    -1.12800
C1642       C  0.30961357  0.99585604  0.65289829     1.05400
O1643       O  0.30015667  0.93596292  0.51274689    -0.79400
O1644       O  0.28369952  0.96999362  0.56908462    -0.67000
Ni1645     Ni  0.31561330  0.04808516  0.44429077     1.34900
C1646       C  0.27921761  0.99382161  0.57042571     0.84100
O1647       O  0.31161480  0.98765160  0.39726082    -0.80000
O1648       O  0.31018138  0.03136631  0.38267329    -0.90200
C1649       C  0.30982288  0.93093284  0.47862449     0.83700
O1650       O  0.33589662  0.03469367  0.43832137    -0.68400
O1651       O  0.30665620  0.97257626  0.63701002    -0.87700
C1652       C  0.34228683  0.01267841  0.44753068     0.84500
C1653       C  0.31049598  0.00744913  0.36763158     1.06100
H1654       H  0.32560200  0.98065889  0.54942356     0.37900
O1655       O  0.31496095  0.98292460  0.54037272    -1.10400
O1656       O  0.28816599  0.01331073  0.56307483    -0.67000
Ni1657     Ni  0.30972579  0.01872398  0.55294094     1.26300
O1658       O  0.33492546  0.99272203  0.46421268    -0.67300
O1659       O  0.31246747  0.01549932  0.62402425    -0.79600
C1660       C  0.31235359  0.07314291  0.53734105     0.83900
O1661       O  0.30518578  0.05541228  0.56148395    -0.66700
Ni1662     Ni  0.30383730  0.95555585  0.57339649     1.27400
Ni1663     Ni  0.31327889  0.98475408  0.46905604     1.26100
H1664       H  0.29592819  0.02048942  0.47477156     0.38400
C1665       C  0.31759443  0.02137821  0.72832815    -0.26900
C1666       C  0.30928687  0.00020184  0.70783604    -0.15000
C1667       C  0.30044566  0.98384222  0.74002097     0.35600
C1668       C  0.30076910  0.98832061  0.79190125    -0.26400
C1669       C  0.30930775  0.00918834  0.81238722    -0.15600
C1670       C  0.31780990  0.02597761  0.78016152     0.36700
N1671       N  0.32702262  0.04715928  0.80015698    -0.89900
H1672       H  0.32426567  0.03407311  0.70390478     0.17800
H1673       H  0.29411883  0.97567108  0.81647119     0.17800
N1674       N  0.29091230  0.96307734  0.72004020    -0.88900
H1675       H  0.33230262  0.05784796  0.77137816     0.35200
H1676       H  0.33583403  0.03863102  0.82128550     0.40300
H1677       H  0.28228228  0.97200091  0.69867705     0.39900
H1678       H  0.28540110  0.95273333  0.74880716     0.34800
C1679       C  0.30841458  0.97551022  0.23824981    -0.26900
C1680       C  0.31233888  0.99704982  0.20711314    -0.15000
C1681       C  0.31577715  0.02160810  0.22947177     0.35600
C1682       C  0.31473208  0.02440407  0.28145182    -0.26400
C1683       C  0.31046518  0.00312185  0.31257337    -0.15600
C1684       C  0.30739031  0.97824972  0.29057173     0.36700
N1685       N  0.30306477  0.95595724  0.32103017    -0.89900
H1686       H  0.30567276  0.95651448  0.22171426     0.17800
H1687       H  0.31756665  0.04348972  0.29749788     0.17800
N1688       N  0.32047443  0.04383977  0.19982872    -0.88900
H1689       H  0.30153229  0.93904060  0.29905980     0.35200
H1690       H  0.29240827  0.96016494  0.33685626     0.40300
H1691       H  0.33130142  0.04992949  0.21226627     0.39900
H1692       H  0.31279018  0.05926107  0.20626045     0.34800
C1693       C  0.38363906  0.99076075  0.95516449    -0.26900
C1694       C  0.39048217  0.01067843  0.92583224    -0.15000
C1695       C  0.38100541  0.02913564  0.90095071     0.35600
C1696       C  0.36521455  0.02833427  0.90813308    -0.26400
C1697       C  0.35831605  0.00966568  0.94010329    -0.15600
C1698       C  0.36768414  0.99007640  0.96266273     0.36700
N1699       N  0.36150142  0.96998217  0.99470738    -0.89900
H1700       H  0.39078326  0.97630368  0.97400357     0.17800
H1701       H  0.35827443  0.04294644  0.88891399     0.17800
N1702       N  0.38702557  0.04875062  0.86742477    -0.88900
H1703       H  0.35379728  0.95847227  0.97397244     0.35200
H1704       H  0.35562580  0.97910869  0.02399153     0.40300
H1705       H  0.39371475  0.03933232  0.84042258     0.39900
H1706       H  0.39384156  0.06206191  0.88750903     0.34800
C1707       C  0.42672904  0.01578557  0.59497711    -0.26900
C1708       C  0.43588561  0.99923739  0.56498800    -0.15000
C1709       C  0.44536451  0.98042870  0.58865835     0.35600
C1710       C  0.44549473  0.97855409  0.64107014    -0.26400
C1711       C  0.43651851  0.99538862  0.67085726    -0.15600
C1712       C  0.42703188  0.01411275  0.64737382     0.36700
N1713       N  0.41750322  0.03120787  0.67639798    -0.89900
H1714       H  0.41929120  0.03036895  0.57784540     0.17800
H1715       H  0.45301691  0.96421450  0.65859100     0.17800
N1716       N  0.45517546  0.96362886  0.55999761    -0.88900
H1717       H  0.40611950  0.02798359  0.66559652     0.35200
H1718       H  0.42035243  0.05074880  0.66740148     0.40300
H1719       H  0.45237158  0.94397447  0.56825019     0.39900
H1720       H  0.46647762  0.96698506  0.57157721     0.34800
C1721       C  0.44332081  0.02700151  0.09712646    -0.26900
C1722       C  0.43895855  0.00584534  0.06584593    -0.15000
C1723       C  0.43370560  0.98205053  0.08798504     0.35600
C1724       C  0.43310491  0.97995105  0.14041612    -0.26400
C1725       C  0.43739776  0.00108994  0.17159479    -0.15600
C1726       C  0.44274703  0.02482861  0.14964911     0.36700
N1727       N  0.44799735  0.04634074  0.18055696    -0.89900
H1728       H  0.44738103  0.04529272  0.08051823     0.17800
H1729       H  0.42912612  0.96163733  0.15715053     0.17800
N1730       N  0.42867794  0.96025077  0.05740907    -0.88900
H1731       H  0.45140110  0.06242800  0.15851004     0.35200
H1732       H  0.45778810  0.03995868  0.19972479     0.40300
H1733       H  0.41873229  0.96618063  0.03858025     0.39900
H1734       H  0.42557684  0.94404366  0.07961293     0.34800
C1735       C  0.36564486  0.02970434  0.40466287    -0.26900
C1736       C  0.35900047  0.01063945  0.43648788    -0.15000
C1737       C  0.36842024  0.99031913  0.45575167     0.35600
C1738       C  0.38424501  0.99039902  0.44525929    -0.26400
C1739       C  0.39094233  0.01039946  0.41563591    -0.15600
C1740       C  0.38134694  0.02968056  0.39395355     0.36700
N1741       N  0.38746935  0.04934726  0.36079720    -0.89900
H1742       H  0.35862458  0.04496805  0.38776247     0.17800
H1743       H  0.39139903  0.97531933  0.46215398     0.17800
N1744       N  0.36213188  0.96999859  0.48707237    -0.88900
H1745       H  0.38504539  0.06797899  0.37569088     0.35200
H1746       H  0.38179146  0.04770833  0.32636466     0.40300
H1747       H  0.36786194  0.97052004  0.52153125     0.39900
H1748       H  0.36435003  0.95173327  0.47032312     0.34800
C1749       C  0.30870513  0.87388520  0.88748363    -0.26900
C1750       C  0.30836135  0.85304828  0.92231039    -0.15000
C1751       C  0.30690446  0.85881681  0.97378888     0.35600
C1752       C  0.30605637  0.88510152  0.98936543    -0.26400
C1753       C  0.30696004  0.90598034  0.95477279    -0.15600
C1754       C  0.30819930  0.90023630  0.90311657     0.36700
N1755       N  0.30850387  0.92057788  0.86565741    -0.89900
H1756       H  0.30959673  0.86965611  0.84779643     0.17800
H1757       H  0.30495258  0.88924595  0.02902752     0.17800
N1758       N  0.30565405  0.83843682  0.01083390    -0.88900
H1759       H  0.31834842  0.93210466  0.87065179     0.35200
H1760       H  0.29884004  0.93249869  0.87008732     0.40300
H1761       H  0.31579772  0.82753408  0.01140403     0.39900
H1762       H  0.29658659  0.82599494  0.00053684     0.34800
C1763       C  0.31931445  0.77177393  0.59338452    -0.26900
C1764       C  0.31224656  0.74892182  0.57421225    -0.15000
C1765       C  0.30755402  0.72881809  0.60789228     0.35600
C1766       C  0.30985213  0.73222187  0.65963529    -0.26400
C1767       C  0.31664024  0.75531152  0.67894657    -0.15600
C1768       C  0.32173203  0.77508795  0.64511080     0.36700
N1769       N  0.32940405  0.79844066  0.66321417    -0.89900
H1770       H  0.32339573  0.78686169  0.56774529     0.17800
H1771       H  0.30571623  0.71712090  0.68513781     0.17800
N1772       N  0.30023091  0.70516952  0.58964522    -0.88900
H1773       H  0.33227072  0.81105795  0.63357514     0.35200
H1774       H  0.33972944  0.79245000  0.67959749     0.40300
H1775       H  0.28975533  0.71068156  0.57368914     0.39900
H1776       H  0.29768809  0.69226438  0.61915763     0.34800
C1777       C  0.30309427  0.77419418  0.14986096    -0.26900
C1778       C  0.31374057  0.76014017  0.17908277    -0.15000
C1779       C  0.32468240  0.74416084  0.15542889     0.35600
C1780       C  0.32491971  0.74301676  0.10280358    -0.26400
C1781       C  0.31418644  0.75701399  0.07327007    -0.15600
C1782       C  0.30304422  0.77243224  0.09747670     0.36700
N1783       N  0.29119402  0.78531597  0.06950436    -0.89900
H1784       H  0.29440367  0.78606121  0.16796840     0.17800
H1785       H  0.33349363  0.73088277  0.08482192     0.17800
N1786       N  0.33550291  0.72929475  0.18476518    -0.88900
H1787       H  0.29133015  0.80533873  0.07918050     0.35200
H1788       H  0.28067575  0.77747784  0.08105266     0.40300
H1789       H  0.34249628  0.74281464  0.20378915     0.39900
H1790       H  0.34268688  0.71828999  0.16155002     0.34800
C1791       C  0.29736023  0.86737184  0.41704813    -0.26900
C1792       C  0.30981497  0.85082855  0.42842095    -0.15000
C1793       C  0.32251183  0.86132927  0.45469764     0.35600
C1794       C  0.32252658  0.88802572  0.46871960    -0.26400
C1795       C  0.31000535  0.90428971  0.45762948    -0.15600
C1796       C  0.29726778  0.89392873  0.43126167     0.36700
N1797       N  0.28408191  0.90959032  0.41827564    -0.89900
H1798       H  0.28750091  0.85965150  0.39695585     0.17800
H1799       H  0.33219978  0.89592196  0.48955525     0.17800
N1800       N  0.33541733  0.84511449  0.46708880    -0.88900
H1801       H  0.28318683  0.90980586  0.37919758     0.35200
H1802       H  0.28537633  0.92929701  0.42905260     0.40300
H1803       H  0.33680319  0.84528788  0.50602142     0.39900
H1804       H  0.34518646  0.85363332  0.45111945     0.34800
C1805       C  0.45440630  0.86413857  0.45021406    -0.26900
C1806       C  0.44072319  0.85375942  0.46932143    -0.15000
C1807       C  0.42722697  0.86903043  0.46741014     0.35600
C1808       C  0.42764609  0.89425118  0.44587906    -0.26400
C1809       C  0.44123284  0.90434603  0.42508582    -0.15600
C1810       C  0.45473981  0.88916820  0.42762235     0.36700
N1811       N  0.46887900  0.89929566  0.40822676    -0.89900
H1812       H  0.46483740  0.85259533  0.45216042     0.17800
H1813       H  0.41721730  0.90581855  0.44453939     0.17800
N1814       N  0.41306770  0.85964428  0.48800826    -0.88900
H1815       H  0.47283705  0.88608985  0.38113506     0.35200
H1816       H  0.47687880  0.89979321  0.43747675     0.40300
H1817       H  0.41486339  0.85495429  0.52574497     0.39900
H1818       H  0.40980617  0.84245099  0.46903115     0.34800
C1819       C  0.38466650  0.72409717  0.43138698    -0.26900
C1820       C  0.39165393  0.74621711  0.45398620    -0.15000
C1821       C  0.38241567  0.76814560  0.46653718     0.35600
C1822       C  0.36648069  0.76700597  0.45803003    -0.26400
C1823       C  0.35959172  0.74427226  0.43748914    -0.15600
C1824       C  0.36889605  0.72292471  0.42319142     0.36700
N1825       N  0.36239077  0.69993528  0.39985625    -0.89900
H1826       H  0.39142982  0.70722436  0.42003134     0.17800
H1827       H  0.35943323  0.78360605  0.46904227     0.17800
N1828       N  0.38901861  0.79134850  0.48865314    -0.88900
H1829       H  0.36510394  0.68345683  0.42186607     0.35200
H1830       H  0.36753766  0.69755354  0.36485138     0.40300
H1831       H  0.38379311  0.79439618  0.52334122     0.39900
H1832       H  0.38643062  0.80749586  0.46563191     0.34800
C1833       C  0.44722407  0.73928573  0.79815053    -0.26900
C1834       C  0.44155168  0.75917265  0.82962182    -0.15000
C1835       C  0.43488054  0.78190144  0.80782839     0.35600
C1836       C  0.43343275  0.78363479  0.75549897    -0.26400
C1837       C  0.43847813  0.76304292  0.72432972    -0.15600
C1838       C  0.44582657  0.74105823  0.74611877     0.36700
N1839       N  0.45231837  0.72073766  0.71558369    -0.89900
H1840       H  0.45266829  0.72192333  0.81397286     0.17800
H1841       H  0.42822690  0.80110695  0.73924132     0.17800
N1842       N  0.42918674  0.80292189  0.83843824    -0.88900
H1843       H  0.44736216  0.70273627  0.72616177     0.35200
H1844       H  0.46406053  0.71977338  0.72331610     0.40300
H1845       H  0.41752727  0.80532099  0.83057033     0.39900
H1846       H  0.43487350  0.82036567  0.82831620     0.34800
C1847       C  0.44533705  0.73242952  0.29844743    -0.26900
C1848       C  0.44040897  0.75323233  0.32941707    -0.15000
C1849       C  0.43416125  0.77620124  0.30695947     0.35600
C1850       C  0.43332967  0.77794968  0.25454557    -0.26400
C1851       C  0.43828269  0.75719302  0.22378389    -0.15600
C1852       C  0.44444178  0.73420603  0.24598946     0.36700
N1853       N  0.45019676  0.71310346  0.21536563    -0.89900
H1854       H  0.45006299  0.71469736  0.31521329     0.17800
H1855       H  0.42866448  0.79566447  0.23748943     0.17800
N1856       N  0.42836295  0.79746337  0.33713107    -0.88900
H1857       H  0.45412663  0.69746662  0.23759804     0.35200
H1858       H  0.45972390  0.72035829  0.19598462     0.40300
H1859       H  0.41865719  0.79040056  0.35581757     0.39900
H1860       H  0.42465752  0.81316478  0.31464487     0.34800
C1861       C  0.42714430  0.87012876  0.97415722    -0.26900
C1862       C  0.44022676  0.85428576  0.97160116    -0.15000
C1863       C  0.45326835  0.86353441  0.94584321     0.35600
C1864       C  0.45308616  0.88864885  0.92386160    -0.26400
C1865       C  0.44013876  0.90500397  0.92737352    -0.15600
C1866       C  0.42692820  0.89546037  0.95239243     0.36700
N1867       N  0.41329597  0.91128370  0.95512908    -0.89900
H1868       H  0.41710141  0.86274169  0.99353189     0.17800
H1869       H  0.46323256  0.89551580  0.90440948     0.17800
N1870       N  0.46670271  0.84758763  0.94053686    -0.88900
H1871       H  0.40477540  0.90151551  0.97556450     0.35200
H1872       H  0.40904874  0.91344905  0.91867216     0.40300
H1873       H  0.46355028  0.82983909  0.92318702     0.39900
H1874       H  0.47101334  0.84327583  0.97619396     0.34800
C1875       C  0.36631329  0.76691790  0.95884422    -0.26900
C1876       C  0.35977384  0.74696444  0.92882198    -0.15000
C1877       C  0.36947270  0.72764627  0.90797976     0.35600
C1878       C  0.38516910  0.72794073  0.91896006    -0.26400
C1879       C  0.39171187  0.74723292  0.95046561    -0.15600
C1880       C  0.38211763  0.76718509  0.96994228     0.36700
N1881       N  0.38820562  0.78732265  0.00210389    -0.89900
H1882       H  0.35905265  0.78182526  0.97551838     0.17800
H1883       H  0.39226436  0.71274878  0.90245524     0.17800
N1884       N  0.36347144  0.70757609  0.87542933    -0.88900
H1885       H  0.38243401  0.78630310  0.03631717     0.35200
H1886       H  0.38586254  0.80570612  0.98583179     0.40300
H1887       H  0.36598115  0.68912484  0.89116372     0.39900
H1888       H  0.36915180  0.70897222  0.84109872     0.34800
C1889       C  0.31220807  0.10913470  0.59988768    -0.26900
C1890       C  0.31051154  0.10121232  0.55002448    -0.15000
C1891       C  0.30764092  0.12044486  0.51252589     0.35600
C1892       C  0.30723795  0.14723921  0.52531834    -0.26400
C1893       C  0.31002942  0.15532531  0.57467040    -0.15600
C1894       C  0.31213711  0.13601419  0.61248396     0.36700
N1895       N  0.31419080  0.14361451  0.66378203    -0.89900
H1896       H  0.31415544  0.09448565  0.62892714     0.17800
H1897       H  0.30534914  0.16184185  0.49617129     0.17800
N1898       N  0.30493899  0.11332127  0.46129942    -0.88900
H1899       H  0.32470793  0.13617346  0.67620445     0.35200
H1900       H  0.30553075  0.13467061  0.68491622     0.40300
H1901       H  0.29586539  0.09976576  0.46002970     0.39900
H1902       H  0.31475445  0.10433029  0.44706836     0.34800
C1903       C  0.31518788  0.11994790  0.01412100    -0.26900
C1904       C  0.30957196  0.10201941  0.05026836    -0.15000
C1905       C  0.30240193  0.11190318  0.09350762     0.35600
C1906       C  0.30195272  0.13926881  0.10143175    -0.26400
C1907       C  0.30824260  0.15690391  0.06642040    -0.15600
C1908       C  0.31455841  0.14721421  0.02176042     0.36700
N1909       N  0.32104771  0.16451325  0.98483902    -0.89900
H1910       H  0.32041816  0.11276462  0.98001186     0.17800
H1911       H  0.29708053  0.14677858  0.13587986     0.17800
N1912       N  0.29607456  0.09436792  0.13026244    -0.88900
H1913       H  0.32975857  0.17565939  0.00171524     0.35200
H1914       H  0.31250461  0.17743292  0.97243810     0.40300
H1915       H  0.28444499  0.09880573  0.13410056     0.39900
H1916       H  0.30146659  0.09825067  0.16452060     0.34800
C1917       C  0.30527775  0.23766719  0.89492920    -0.26900
C1918       C  0.31192709  0.26055622  0.91517521    -0.15000
C1919       C  0.31700155  0.28077873  0.88257399     0.35600
C1920       C  0.31565647  0.27744902  0.83052523    -0.26400
C1921       C  0.30918619  0.25430994  0.81027573    -0.15600
C1922       C  0.30364246  0.23455275  0.84312003     0.36700
N1923       N  0.29599058  0.21150730  0.82414771    -0.89900
H1924       H  0.30076815  0.22244206  0.91951372     0.17800
H1925       H  0.32006458  0.29275535  0.80594217     0.17800
N1926       N  0.32376883  0.30450570  0.90207484    -0.88900
H1927       H  0.28495570  0.21092328  0.83926716     0.35200
H1928       H  0.30190732  0.19483224  0.83686664     0.40300
H1929       H  0.31732782  0.32056068  0.88920477     0.39900
H1930       H  0.33481799  0.30629039  0.88739969     0.34800
C1931       C  0.30098345  0.23185053  0.34115921    -0.26900
C1932       C  0.30603599  0.25251545  0.30981363    -0.15000
C1933       C  0.31200823  0.27584829  0.33198666     0.35600
C1934       C  0.31250697  0.27802307  0.38442850    -0.26400
C1935       C  0.30766903  0.25721968  0.41552575    -0.15600
C1936       C  0.30170400  0.23393783  0.39362971     0.36700
N1937       N  0.29609612  0.21272338  0.42461411    -0.89900
H1938       H  0.29643015  0.21388639  0.32466436     0.17800
H1939       H  0.31702180  0.29594614  0.40123076     0.17800
N1940       N  0.31799666  0.29696514  0.30152804    -0.88900
H1941       H  0.29227378  0.19689687  0.40264683     0.35200
H1942       H  0.28652105  0.21972811  0.44383544     0.40300
H1943       H  0.32786551  0.28994722  0.28394522     0.39900
H1944       H  0.32147805  0.31294430  0.32370123     0.34800
C1945       C  0.43719351  0.13853730  0.76432063    -0.26900
C1946       C  0.43916096  0.15681942  0.80367781    -0.15000
C1947       C  0.44262932  0.14737754  0.85200931     0.35600
C1948       C  0.44276375  0.12002932  0.86096269    -0.26400
C1949       C  0.43994762  0.10183892  0.82218520    -0.15600
C1950       C  0.43767206  0.11110210  0.77302926     0.36700
N1951       N  0.43523678  0.09274564  0.73268738    -0.89900
H1952       H  0.43494258  0.14569269  0.72671875     0.17800
H1953       H  0.44472385  0.11293357  0.89879840     0.17800
N1954       N  0.44542485  0.16537675  0.89244829    -0.88900
H1955       H  0.43385455  0.10282845  0.69873690     0.35200
H1956       H  0.42491671  0.08282837  0.73950226     0.40300
H1957       H  0.45631730  0.16144054  0.90706156     0.39900
H1958       H  0.43738965  0.16159660  0.92054654     0.34800
C1959       C  0.38329452  0.22774381  0.66323873    -0.26900
C1960       C  0.39042983  0.24820656  0.69051921    -0.15000
C1961       C  0.38131406  0.26961168  0.70693163     0.35600
C1962       C  0.36536263  0.26944986  0.69778495    -0.26400
C1963       C  0.35830999  0.24821201  0.67270347    -0.15600
C1964       C  0.36748615  0.22760667  0.65425234     0.36700
N1965       N  0.36075502  0.20644666  0.62594824    -0.89900
H1966       H  0.38998580  0.21146394  0.64876471     0.17800
H1967       H  0.35840579  0.28543461  0.71212627     0.17800
N1968       N  0.38804949  0.29117102  0.73401043    -0.88900
H1969       H  0.36320638  0.18864512  0.64425239     0.35200
H1970       H  0.36598008  0.20602475  0.59077016     0.40300
H1971       H  0.38268475  0.29238049  0.76888604     0.39900
H1972       H  0.38575588  0.30862738  0.71433573     0.34800
C1973       C  0.45060599  0.12041054  0.35715076    -0.26900
C1974       C  0.44320758  0.10207404  0.32583785    -0.15000
C1975       C  0.43549653  0.11079331  0.28284449     0.35600
C1976       C  0.43438730  0.13790975  0.27350160    -0.26400
C1977       C  0.44082783  0.15660916  0.30666828    -0.15600
C1978       C  0.44965771  0.14753873  0.34785071     0.36700
N1979       N  0.45729632  0.16512086  0.38187990    -0.89900
H1980       H  0.45661259  0.11360851  0.39037357     0.17800
H1981       H  0.42796371  0.14429025  0.24084981     0.17800
N1982       N  0.42788967  0.09229434  0.25053485    -0.88900
H1983       H  0.44919518  0.17756597  0.39822007     0.35200
H1984       H  0.46526755  0.17641933  0.36191144     0.40300
H1985       H  0.43221737  0.09483320  0.21437046     0.39900
H1986       H  0.41622536  0.09694285  0.24972280     0.34800
C1987       C  0.43390876  0.27797031  0.54743384    -0.26900
C1988       C  0.44096550  0.25548192  0.56794218    -0.15000
C1989       C  0.44695979  0.23609855  0.53532349     0.35600
C1990       C  0.44519209  0.23912882  0.48330821    -0.26400
C1991       C  0.43786017  0.26134245  0.46277250    -0.15600
C1992       C  0.43221925  0.28108353  0.49533840     0.36700
N1993       N  0.42453662  0.30397970  0.47558319    -0.89900
H1994       H  0.42912217  0.29272713  0.57220400     0.17800
H1995       H  0.44996656  0.22433888  0.45857607     0.17800
N1996       N  0.45493918  0.21349111  0.55504125    -0.88900
H1997       H  0.42123747  0.31666442  0.50447232     0.35200
H1998       H  0.41445250  0.29746473  0.45820188     0.40300
H1999       H  0.46486180  0.22041816  0.57284891     0.39900
H2000       H  0.45853515  0.20107726  0.52611296     0.34800
C2001       C  0.43360615  0.27598109  0.04834052    -0.26900
C2002       C  0.43621907  0.25060621  0.06780344    -0.15000
C2003       C  0.43819873  0.22936320  0.03406256     0.35600
C2004       C  0.43731856  0.23387673  0.98228104    -0.26400
C2005       C  0.43479743  0.25934571  0.96283708    -0.15600
C2006       C  0.43291814  0.28060847  0.99665907     0.36700
N2007       N  0.43024799  0.30700074  0.97905590    -0.89900
H2008       H  0.43185979  0.29242730  0.07341525     0.17800
H2009       H  0.43914270  0.21735122  0.95721841     0.17800
N2010       N  0.44148427  0.20323401  0.05187164    -0.88900
H2011       H  0.43900782  0.31915883  0.99291640     0.35200
H2012       H  0.41988657  0.31356384  0.99405464     0.40300
H2013       H  0.45195165  0.19733460  0.03664851     0.39900
H2014       H  0.43296904  0.19047082  0.03837299     0.34800
C2015       C  0.37914758  0.22747792  0.22934924    -0.26900
C2016       C  0.38810001  0.24711894  0.20656463    -0.15000
C2017       C  0.38077095  0.26635817  0.17634443     0.35600
C2018       C  0.36484204  0.26491879  0.16838130    -0.26400
C2019       C  0.35592623  0.24451119  0.18963023    -0.15600
C2020       C  0.36334461  0.22592030  0.22158590     0.36700
N2021       N  0.35527174  0.20529573  0.24744909    -0.89900
H2022       H  0.38457153  0.21271675  0.25295155     0.17800
H2023       H  0.35948851  0.27948905  0.14424756     0.17800
N2024       N  0.38924678  0.28682281  0.15150607    -0.88900
H2025       H  0.35082959  0.19185339  0.22145275     0.35200
H2026       H  0.34642616  0.21365233  0.26839350     0.40300
H2027       H  0.39758932  0.27804927  0.12902284     0.39900
H2028       H  0.39469760  0.29844831  0.17861844     0.34800
C2029       C  0.30413320  0.60732260  0.85535683    -0.26900
C2030       C  0.30740466  0.60084913  0.80567442    -0.15000
C2031       C  0.30901943  0.62120507  0.76953367     0.35600
C2032       C  0.30844884  0.64774341  0.78476537    -0.26400
C2033       C  0.30641046  0.65416680  0.83523879    -0.15600
C2034       C  0.30362761  0.63378922  0.87063386     0.36700
N2035       N  0.30067163  0.64006245  0.92224769    -0.89900
H2036       H  0.30261380  0.59169767  0.88276562     0.17800
H2037       H  0.31039599  0.66337694  0.75765439     0.17800
N2038       N  0.31150002  0.61483963  0.71770440    -0.88900
H2039       H  0.29913499  0.62282689  0.94340862     0.35200
H2040       H  0.29031447  0.65036218  0.92351149     0.40300
H2041       H  0.31259289  0.63206236  0.69622647     0.39900
H2042       H  0.30170185  0.60503407  0.70465039     0.34800
C2043       C  0.29481314  0.39312755  0.69633776    -0.26900
C2044       C  0.30899482  0.40432143  0.70964399    -0.15000
C2045       C  0.32249131  0.38936516  0.70335722     0.35600
C2046       C  0.32155581  0.36382028  0.68351010    -0.26400
C2047       C  0.30743215  0.35287243  0.66874622    -0.15600
C2048       C  0.29387322  0.36757360  0.67577849     0.36700
N2049       N  0.27920925  0.35636363  0.66294821    -0.89900
H2050       H  0.28443076  0.40444509  0.70182249     0.17800
H2051       H  0.33201102  0.35260184  0.67877016     0.17800
N2052       N  0.33723452  0.39928262  0.71807823    -0.88900
H2053       H  0.27042470  0.36982471  0.67017774     0.35200
H2054       H  0.27735654  0.34015518  0.68659287     0.40300
H2055       H  0.33680198  0.40456367  0.75590361     0.39900
H2056       H  0.33972490  0.41612566  0.69683202     0.34800
C2057       C  0.31077594  0.61880890  0.26976790    -0.26900
C2058       C  0.30960300  0.60000014  0.30854640    -0.15000
C2059       C  0.30774858  0.60858275  0.35830478     0.35600
C2060       C  0.30829484  0.63579740  0.36853915    -0.26400
C2061       C  0.31009468  0.65446436  0.32990296    -0.15600
C2062       C  0.31090932  0.64587666  0.27985765     0.36700
N2063       N  0.31270586  0.66401826  0.23895247    -0.89900
H2064       H  0.31200002  0.61237348  0.23126808     0.17800
H2065       H  0.30751914  0.64252546  0.40698772     0.17800
N2066       N  0.30613359  0.58978250  0.39838162    -0.88900
H2067       H  0.32251064  0.67550391  0.24532007     0.35200
H2068       H  0.30316853  0.67644739  0.23775884     0.40300
H2069       H  0.29551023  0.58043566  0.39392503     0.39900
H2070       H  0.30573423  0.59945594  0.43294542     0.34800
C2071       C  0.30800680  0.47631205  0.49321907    -0.26900
C2072       C  0.31431395  0.49616204  0.46238096    -0.15000
C2073       C  0.32005146  0.51942586  0.48452718     0.35600
C2074       C  0.31906920  0.52269193  0.53648525    -0.26400
C2075       C  0.31249530  0.50306429  0.56722214    -0.15600
C2076       C  0.30703222  0.47956083  0.54518067     0.36700
N2077       N  0.30010300  0.45923754  0.57506073    -0.89900
H2078       H  0.30334193  0.45838429  0.47687341     0.17800
H2079       H  0.32367444  0.54066271  0.55284224     0.17800
N2080       N  0.32711093  0.53961070  0.45468755    -0.88900
H2081       H  0.30625498  0.44175983  0.56976838     0.35200
H2082       H  0.28893096  0.45616655  0.56195394     0.40300
H2083       H  0.33837565  0.54212845  0.46733311     0.39900
H2084       H  0.32126915  0.55728377  0.46101230     0.34800
C2085       C  0.31179153  0.47592750  0.99308962    -0.26900
C2086       C  0.31118610  0.49838816  0.96194741    -0.15000
C2087       C  0.31006476  0.52357923  0.98448840     0.35600
C2088       C  0.31012075  0.52574415  0.03685674    -0.26400
C2089       C  0.31091937  0.50324898  0.06789799    -0.15600
C2090       C  0.31155235  0.47810032  0.04532300     0.36700
N2091       N  0.31216591  0.45456676  0.07500063    -0.89900
H2092       H  0.31238114  0.45628599  0.97704555     0.17800
H2093       H  0.30941100  0.54530442  0.05320567     0.17800
N2094       N  0.30858651  0.54706020  0.95473598    -0.88900
H2095       H  0.32215946  0.44435599  0.06573850     0.35200
H2096       H  0.30277374  0.44270724  0.06524442     0.40300
H2097       H  0.31764596  0.55980434  0.96374493     0.39900
H2098       H  0.29834479  0.55637311  0.96450158     0.34800
C2099       C  0.30599474  0.35509394  0.22099524    -0.26900
C2100       C  0.30804568  0.35215498  0.16929091    -0.15000
C2101       C  0.31033315  0.37455379  0.13881497     0.35600
C2102       C  0.31050237  0.39964298  0.16087087    -0.26400
C2103       C  0.30806071  0.40282511  0.21234985    -0.15600
C2104       C  0.30581913  0.38029706  0.24273733     0.36700
N2105       N  0.30369747  0.38285984  0.29569172    -0.89900
H2106       H  0.30423775  0.33781622  0.24439276     0.17800
H2107       H  0.31243769  0.41681797  0.13778060     0.17800
N2108       N  0.31262530  0.37167628  0.08576245    -0.88900
H2109       H  0.31235867  0.37220459  0.31376746     0.35200
H2110       H  0.29319259  0.37414305  0.30491581     0.40300
H2111       H  0.32289689  0.36146759  0.08061735     0.39900
H2112       H  0.31401240  0.39016876  0.06871351     0.34800
C2113       C  0.44106748  0.64128293  0.52289209    -0.26900
C2114       C  0.44102913  0.65802207  0.56497488    -0.15000
C2115       C  0.44238538  0.64701161  0.61307258     0.35600
C2116       C  0.44255239  0.61943616  0.61857798    -0.26400
C2117       C  0.44174996  0.60266960  0.57662293    -0.15600
C2118       C  0.44164486  0.61379870  0.52822435     0.36700
N2119       N  0.44148535  0.59775221  0.48409886    -0.89900
H2120       H  0.44032553  0.64963818  0.48552358     0.17800
H2121       H  0.44283700  0.61104774  0.65598576     0.17800
N2122       N  0.44280011  0.66362794  0.65640417    -0.88900
H2123       H  0.43199576  0.58508930  0.48552581     0.35200
H2124       H  0.45145219  0.58636693  0.48418823     0.40300
H2125       H  0.45290958  0.65957594  0.67607681     0.39900
H2126       H  0.43355954  0.65851512  0.67933449     0.34800
C2127       C  0.45360181  0.39362693  0.68201478    -0.26900
C2128       C  0.43963724  0.40660318  0.67371090    -0.15000
C2129       C  0.42575706  0.39336306  0.68519088     0.35600
C2130       C  0.42615973  0.36738797  0.70338978    -0.26400
C2131       C  0.44015382  0.35462162  0.71218726    -0.15600
C2132       C  0.45397277  0.36795158  0.70180009     0.36700
N2133       N  0.46839850  0.35522135  0.71012208    -0.89900
H2134       H  0.46431215  0.40354087  0.67340005     0.17800
H2135       H  0.41548034  0.35729676  0.71170865     0.17800
N2136       N  0.41112011  0.40551732  0.67784009    -0.88900
H2137       H  0.47478734  0.36686681  0.73497006     0.35200
H2138       H  0.47425078  0.35463568  0.67603309     0.40300
H2139       H  0.41023219  0.41164818  0.64051490     0.39900
H2140       H  0.41046123  0.42206167  0.70110819     0.34800
C2141       C  0.38398291  0.53669085  0.70490625    -0.26900
C2142       C  0.39151957  0.51398938  0.68743177    -0.15000
C2143       C  0.38288987  0.49041269  0.68142363     0.35600
C2144       C  0.36703639  0.49033153  0.69130738    -0.26400
C2145       C  0.35952811  0.51339787  0.70694940    -0.15600
C2146       C  0.36827672  0.53659307  0.71487749     0.36700
N2147       N  0.36129008  0.56024891  0.73339510    -0.89900
H2148       H  0.39026480  0.55493960  0.71100921     0.17800
H2149       H  0.36051113  0.47234256  0.68509412     0.17800
N2150       N  0.39004053  0.46654119  0.66492123    -0.88900
H2151       H  0.36312076  0.57535562  0.70724686     0.35200
H2152       H  0.36680277  0.56556865  0.76675855     0.40300
H2153       H  0.38463931  0.46047360  0.63182942     0.39900
H2154       H  0.38813074  0.45200189  0.69211424     0.34800
C2155       C  0.43808315  0.61932525  0.11854394    -0.26900
C2156       C  0.43945495  0.60148717  0.07835689    -0.15000
C2157       C  0.44158517  0.61151160  0.02943779     0.35600
C2158       C  0.44145475  0.63887460  0.02159828    -0.26400
C2159       C  0.43962331  0.65661693  0.06163736    -0.15600
C2160       C  0.43821921  0.64680369  0.11072583     0.36700
N2161       N  0.43638172  0.66466414  0.15209555    -0.89900
H2162       H  0.43664244  0.61175693  0.15625978     0.17800
H2163       H  0.44262307  0.64638275  0.98372065     0.17800
N2164       N  0.44329354  0.59455026  0.98687385    -0.88900
H2165       H  0.43557873  0.65420788  0.18582620     0.35200
H2166       H  0.42594549  0.67445354  0.14724162     0.40300
H2167       H  0.43382002  0.58186522  0.98488531     0.39900
H2168       H  0.45321445  0.58329461  0.99162908     0.34800
C2169       C  0.43289070  0.48521617  0.83271486    -0.26900
C2170       C  0.44020503  0.50774852  0.81312290    -0.15000
C2171       C  0.44569145  0.52741954  0.84653439     0.35600
C2172       C  0.44372002  0.52401804  0.89836794    -0.26400
C2173       C  0.43664609  0.50125794  0.91773699    -0.15600
C2174       C  0.43103089  0.48186834  0.88443437     0.36700
N2175       N  0.42319850  0.45890377  0.90293476    -0.89900
H2176       H  0.42822020  0.47031769  0.80774557     0.17800
H2177       H  0.44832738  0.53871998  0.92387907     0.17800
N2178       N  0.45345866  0.55056518  0.82795919    -0.88900
H2179       H  0.42904804  0.44216811  0.89042849     0.35200
H2180       H  0.41220243  0.45855516  0.88723333     0.40300
H2181       H  0.46365319  0.54431707  0.81135595     0.39900
H2182       H  0.45656928  0.56314036  0.85739036     0.34800
C2183       C  0.44900409  0.51994158  0.34351100    -0.26900
C2184       C  0.44153311  0.50148769  0.31256966    -0.15000
C2185       C  0.43294556  0.48090406  0.33488074     0.35600
C2186       C  0.43177684  0.47947737  0.38727179    -0.26400
C2187       C  0.43892341  0.49838558  0.41805010    -0.15600
C2188       C  0.44790795  0.51840706  0.39579728     0.36700
N2189       N  0.45639014  0.53669734  0.42613520    -0.89900
H2190       H  0.45571719  0.53577605  0.32700776     0.17800
H2191       H  0.42513029  0.46361117  0.40394846     0.17800
N2192       N  0.42489856  0.46200620  0.30460498    -0.88900
H2193       H  0.46802072  0.53459736  0.41778339     0.35200
H2194       H  0.45310757  0.55580614  0.41579713     0.40300
H2195       H  0.41323172  0.46324293  0.31302260     0.39900
H2196       H  0.42865436  0.44311375  0.31473447     0.34800
C2197       C  0.43368786  0.38341779  0.13955681    -0.26900
C2198       C  0.44095786  0.40374310  0.16605172    -0.15000
C2199       C  0.44802580  0.39833324  0.21240043     0.35600
C2200       C  0.44764673  0.37262965  0.23159489    -0.26400
C2201       C  0.44021900  0.35203799  0.20552789    -0.15600
C2202       C  0.43318649  0.35764282  0.15887011     0.36700
N2203       N  0.42571941  0.33732272  0.13045549    -0.89900
H2204       H  0.42829312  0.38760420  0.10376070     0.17800
H2205       H  0.45310066  0.36886639  0.26743173     0.17800
N2206       N  0.45585633  0.41849777  0.24025024    -0.88900
H2207       H  0.43083617  0.33679348  0.09512582     0.35200
H2208       H  0.41425907  0.34272084  0.12546950     0.40300
H2209       H  0.44806090  0.43349032  0.24843303     0.39900
H2210       H  0.46448105  0.42646944  0.21764483     0.34800
C2211       C  0.38285261  0.48990694  0.16559705    -0.26900
C2212       C  0.39201211  0.50808858  0.19221843    -0.15000
C2213       C  0.38507957  0.52383910  0.22946384     0.35600
C2214       C  0.36920631  0.52268497  0.23659669    -0.26400
C2215       C  0.35992739  0.50574264  0.20802097    -0.15600
C2216       C  0.36691865  0.48861469  0.17305623     0.36700
N2217       N  0.35807577  0.47076659  0.14284523    -0.89900
H2218       H  0.38799180  0.47734557  0.13747664     0.17800
H2219       H  0.36403651  0.53561486  0.26409321     0.17800
N2220       N  0.39411254  0.54104629  0.26044787    -0.88900
H2221       H  0.34993163  0.48165509  0.12278876     0.35200
H2222       H  0.35236027  0.45755308  0.16651552     0.40300
H2223       H  0.39245059  0.53553405  0.29782033     0.39900
H2224       H  0.39005556  0.56033996  0.25585341     0.34800
C2225       C  0.25637117  0.47662654  0.88093508    -0.26900
C2226       C  0.26356748  0.49667131  0.85265070    -0.15000
C2227       C  0.25682419  0.52208859  0.85230086     0.35600
C2228       C  0.24338057  0.52683217  0.87972260    -0.26400
C2229       C  0.23618872  0.50681764  0.90809520    -0.15600
C2230       C  0.24293873  0.48140366  0.90850823     0.36700
N2231       N  0.23628567  0.46022028  0.93685680    -0.89900
H2232       H  0.26137886  0.45707125  0.88288839     0.17800
H2233       H  0.23843013  0.54643278  0.87789436     0.17800
N2234       N  0.26353735  0.54335949  0.82430742    -0.88900
H2235       H  0.24447870  0.45347650  0.96250725     0.35200
H2236       H  0.23373028  0.44473641  0.91225764     0.40300
H2237       H  0.26613675  0.55872006  0.84915661     0.39900
H2238       H  0.25538256  0.55027025  0.79869040     0.34800
C2239       C  0.24471680  0.52538759  0.38294688    -0.26900
C2240       C  0.23803977  0.50574243  0.41350335    -0.15000
C2241       C  0.24549934  0.48104776  0.41764670     0.35600
C2242       C  0.25895632  0.47638239  0.39001246    -0.26400
C2243       C  0.26551598  0.49591151  0.35880980    -0.15600
C2244       C  0.25821623  0.52083593  0.35562739     0.36700
N2245       N  0.26444460  0.54157114  0.32475213    -0.89900
H2246       H  0.23911213  0.54435321  0.37887221     0.17800
H2247       H  0.26457892  0.45743631  0.39413479     0.17800
N2248       N  0.23950329  0.46077777  0.45005366    -0.88900
H2249       H  0.25799871  0.55887827  0.32792699     0.35200
H2250       H  0.26347662  0.53546662  0.28746368     0.40300
H2251       H  0.24030522  0.46777568  0.48682029     0.39900
H2252       H  0.24623335  0.44373411  0.44841865     0.34800
C2253       C  0.18603781  0.47869233  0.72948846    -0.26900
C2254       C  0.19011995  0.50005969  0.69819314    -0.15000
C2255       C  0.19325221  0.52493433  0.72006262     0.35600
C2256       C  0.19194437  0.52785507  0.77209810    -0.26400
C2257       C  0.18792497  0.50645772  0.80333146    -0.15600
C2258       C  0.18488974  0.48155983  0.78154709     0.36700
N2259       N  0.18059948  0.45925808  0.81203528    -0.89900
H2260       H  0.18345972  0.45954133  0.71333163     0.17800
H2261       H  0.19459942  0.54693759  0.78842768     0.17800
N2262       N  0.19791622  0.54710441  0.68979866    -0.88900
H2263       H  0.17907855  0.44231726  0.79012440     0.35200
H2264       H  0.16994494  0.46342808  0.82789771     0.40300
H2265       H  0.20870188  0.54272611  0.67509624     0.39900
H2266       H  0.19933695  0.56407932  0.71168279     0.34800
C2267       C  0.18716853  0.52725307  0.27279482    -0.26900
C2268       C  0.18891190  0.50478215  0.30354203    -0.15000
C2269       C  0.19056505  0.47978406  0.28072940     0.35600
C2270       C  0.19059181  0.47786077  0.22841358    -0.26400
C2271       C  0.18902072  0.50036907  0.19773294    -0.15600
C2272       C  0.18714537  0.52537361  0.22036841     0.36700
N2273       N  0.18505367  0.54876482  0.19036836    -0.89900
H2274       H  0.18580379  0.54657162  0.28964131     0.17800
H2275       H  0.19199597  0.45848392  0.21176986     0.17800
N2276       N  0.19252516  0.45628879  0.31017979    -0.88900
H2277       H  0.18432039  0.56560264  0.21291595     0.35200
H2278       H  0.17450277  0.54699983  0.17198879     0.40300
H2279       H  0.20294248  0.44761217  0.30030753     0.39900
H2280       H  0.18371915  0.44305132  0.30100572     0.34800
C2281       C  0.13519918  0.51664158  0.58040844    -0.26900
C2282       C  0.14206155  0.49497783  0.55645968    -0.15000
C2283       C  0.13268198  0.47446253  0.53770378     0.35600
C2284       C  0.11685433  0.47517189  0.54592474    -0.26400
C2285       C  0.10993241  0.49591897  0.57261907    -0.15600
C2286       C  0.11925041  0.51723783  0.58886821     0.36700
N2287       N  0.11272849  0.53914615  0.61508204    -0.89900
H2288       H  0.14230505  0.53259882  0.59463275     0.17800
H2289       H  0.10992845  0.45900216  0.53171962     0.17800
N2290       N  0.13931000  0.45273944  0.51068479    -0.88900
H2291       H  0.11526654  0.55640722  0.59507269     0.35200
H2292       H  0.11804861  0.54048790  0.65015755     0.40300
H2293       H  0.14402697  0.46036510  0.47770189     0.39900
H2294       H  0.13088978  0.43910468  0.49988678     0.34800
C2295       C  0.06147579  0.48032081  0.92039852    -0.26900
C2296       C  0.05945605  0.50247575  0.95144321    -0.15000
C2297       C  0.05843608  0.52780369  0.92903650     0.35600
C2298       C  0.05993640  0.53024734  0.87675931    -0.26400
C2299       C  0.06211806  0.50799705  0.84590122    -0.15600
C2300       C  0.06274066  0.48280425  0.86844134     0.36700
N2301       N  0.06426591  0.45940785  0.83891930    -0.89900
H2302       H  0.06228004  0.46064869  0.93636026     0.17800
H2303       H  0.05920155  0.54974650  0.86005486     0.17800
N2304       N  0.05588267  0.55096302  0.95904499    -0.88900
H2305       H  0.05479370  0.44733006  0.84640512     0.35200
H2306       H  0.07412255  0.44946407  0.85079014     0.40300
H2307       H  0.04491482  0.54930013  0.97441056     0.39900
H2308       H  0.05582229  0.56801986  0.93682451     0.34800
C2309       C  0.05846192  0.48339674  0.36581804    -0.26900
C2310       C  0.06235078  0.50840072  0.34663547    -0.15000
C2311       C  0.06443490  0.52964390  0.38044745     0.35600
C2312       C  0.06305175  0.52531766  0.43208877    -0.26400
C2313       C  0.05943234  0.50019958  0.45142111    -0.15600
C2314       C  0.05682270  0.47915628  0.41743565     0.36700
N2315       N  0.05237216  0.45341792  0.43478000    -0.89900
H2316       H  0.05627098  0.46702773  0.34058120     0.17800
H2317       H  0.06512785  0.54180172  0.45714340     0.17800
N2318       N  0.06807763  0.55570573  0.36282456    -0.88900
H2319       H  0.06048636  0.43978277  0.42231640     0.35200
H2320       H  0.04183109  0.44860027  0.41833657     0.40300
H2321       H  0.07845893  0.56156401  0.37912384     0.39900
H2322       H  0.05954087  0.56857701  0.37521042     0.34800
C2323       C  0.13159847  0.48399653  0.02624914    -0.26900
C2324       C  0.14105016  0.49952769  0.05701166    -0.15000
C2325       C  0.13425592  0.51587057  0.09368211     0.35600
C2326       C  0.11832356  0.51501610  0.10083689    -0.26400
C2327       C  0.10898618  0.49809382  0.07211683    -0.15600
C2328       C  0.11564531  0.48349571  0.03265058     0.36700
N2329       N  0.10618428  0.46815962  0.99923163    -0.89900
H2330       H  0.13675243  0.47182908  0.99751651     0.17800
H2331       H  0.11331765  0.52676496  0.13044878     0.17800
N2332       N  0.14329964  0.53231438  0.12601359    -0.88900
H2333       H  0.11286995  0.45859889  0.97240217     0.35200
H2334       H  0.09913293  0.48133697  0.97967442     0.40300
H2335       H  0.14933463  0.54588279  0.10396100     0.39900
H2336       H  0.15116337  0.52037881  0.14507301     0.34800
C2337       C  0.24300199  0.77359589  0.74108607    -0.26900
C2338       C  0.23897232  0.74732080  0.72924536    -0.15000
C2339       C  0.24962618  0.72701239  0.74097271     0.35600
C2340       C  0.26344331  0.73331318  0.76494660    -0.26400
C2341       C  0.26728364  0.75945602  0.77793731    -0.15600
C2342       C  0.25690896  0.77989000  0.76473686     0.36700
N2343       N  0.25988521  0.80717364  0.77565727    -0.89900
H2344       H  0.23510986  0.78956707  0.73304931     0.17800
H2345       H  0.27137573  0.71738515  0.77292257     0.17800
N2346       N  0.24698424  0.69976941  0.72880374    -0.88900
H2347       H  0.26934629  0.81352609  0.75494702     0.35200
H2348       H  0.26221672  0.80908365  0.81393191     0.40300
H2349       H  0.24441425  0.69827062  0.69061666     0.39900
H2350       H  0.23787880  0.69250165  0.75012608     0.34800
C2351       C  0.18054166  0.63898767  0.58336617    -0.26900
C2352       C  0.19460535  0.65154053  0.59267659    -0.15000
C2353       C  0.20834515  0.63809537  0.58235475     0.35600
C2354       C  0.20776947  0.61242974  0.56237474    -0.26400
C2355       C  0.19367188  0.59960996  0.55415126    -0.15600
C2356       C  0.17991838  0.61311110  0.56517317     0.36700
N2357       N  0.16514612  0.60136103  0.55716170    -0.89900
H2358       H  0.16992387  0.64918969  0.59134258     0.17800
H2359       H  0.21838971  0.60235175  0.55390626     0.17800
N2360       N  0.22286114  0.65062549  0.59109087    -0.88900
H2361       H  0.16404633  0.58486987  0.58054406     0.35200
H2362       H  0.16434164  0.59528209  0.51982323     0.40300
H2363       H  0.22878835  0.65129525  0.55713670     0.39900
H2364       H  0.22910785  0.63879157  0.61594807     0.34800
C2365       C  0.24054673  0.77246926  0.25231551    -0.26900
C2366       C  0.23728295  0.74721167  0.23289141    -0.15000
C2367       C  0.24815982  0.72688451  0.23998629     0.35600
C2368       C  0.26175686  0.73202739  0.26659502    -0.26400
C2369       C  0.26498922  0.75725751  0.28625033    -0.15600
C2370       C  0.25416926  0.77763215  0.27880025     0.36700
N2371       N  0.25680919  0.80358241  0.29858444    -0.89900
H2372       H  0.23225905  0.78825947  0.24840042     0.17800
H2373       H  0.27003733  0.71622369  0.27051194     0.17800
N2374       N  0.24559476  0.70100276  0.21974554    -0.88900
H2375       H  0.24778028  0.80815147  0.32267494     0.35200
H2376       H  0.25657972  0.81703182  0.26877901     0.40300
H2377       H  0.24587039  0.68740052  0.24929697     0.39900
H2378       H  0.25463351  0.69663382  0.19555798     0.34800
C2379       C  0.18590189  0.73189819  0.92659108    -0.26900
C2380       C  0.19272493  0.75472939  0.94680617    -0.15000
C2381       C  0.19847191  0.77438748  0.91396646     0.35600
C2382       C  0.19713704  0.77079030  0.86192005    -0.26400
C2383       C  0.19035207  0.74789985  0.84183338    -0.15600
C2384       C  0.18451751  0.72837007  0.87462522     0.36700
N2385       N  0.17698454  0.70520754  0.85510378    -0.89900
H2386       H  0.18114384  0.71705475  0.95147747     0.17800
H2387       H  0.20188121  0.78557943  0.83687859     0.17800
N2388       N  0.20582067  0.79774254  0.93341445    -0.88900
H2389       H  0.16705852  0.71145760  0.83655366     0.35200
H2390       H  0.17342087  0.69276090  0.88418521     0.40300
H2391       H  0.20925493  0.81026975  0.90428760     0.39900
H2392       H  0.21581248  0.79175969  0.95189970     0.34800
C2393       C  0.19669760  0.76662119  0.36231846    -0.26900
C2394       C  0.18953860  0.74419556  0.34187363    -0.15000
C2395       C  0.18418264  0.72413550  0.37437624     0.35600
C2396       C  0.18565752  0.72723127  0.42642090    -0.26400
C2397       C  0.19252233  0.74995557  0.44684469    -0.15600
C2398       C  0.19846969  0.76954152  0.41428710     0.36700
N2399       N  0.20645503  0.79219141  0.43408151    -0.89900
H2400       H  0.20140084  0.78158114  0.33755452     0.17800
H2401       H  0.18096702  0.71214265  0.45093146     0.17800
N2402       N  0.17695540  0.70082859  0.35481490    -0.88900
H2403       H  0.21008765  0.80469342  0.40517961     0.35200
H2404       H  0.21635948  0.78532812  0.45195920     0.40300
H2405       H  0.16590449  0.69960782  0.36966503     0.39900
H2406       H  0.18312434  0.68440336  0.36743400     0.34800
C2407       C  0.18972435  0.64855005  0.03935152    -0.26900
C2408       C  0.19403224  0.65281446  0.08940176    -0.15000
C2409       C  0.19800899  0.63097519  0.11975293     0.35600
C2410       C  0.19751152  0.60542585  0.09975190    -0.26400
C2411       C  0.19333178  0.60121175  0.04973866    -0.15600
C2412       C  0.18926839  0.62302892  0.01905019     0.36700
N2413       N  0.18435287  0.62016220  0.96778973    -0.89900
H2414       H  0.18663613  0.66518011  0.01571839     0.17800
H2415       H  0.20055312  0.58876403  0.12337298     0.17800
N2416       N  0.20225186  0.63452773  0.17122085    -0.88900
H2417       H  0.17315986  0.62737106  0.96520255     0.35200
H2418       H  0.18377228  0.60039039  0.95689737     0.40300
H2419       H  0.21323480  0.62675141  0.17635489     0.39900
H2420       H  0.19465404  0.62357152  0.19332488     0.34800
C2421       C  0.07208404  0.64427287  0.07484667    -0.26900
C2422       C  0.05869875  0.65337596  0.05102892    -0.15000
C2423       C  0.04573640  0.63657550  0.04853693     0.35600
C2424       C  0.04638762  0.61126002  0.06990373    -0.26400
C2425       C  0.05984399  0.60218902  0.09271937    -0.15600
C2426       C  0.07282064  0.61882057  0.09514942     0.36700
N2427       N  0.08675923  0.61053011  0.11887450    -0.89900
H2428       H  0.08215152  0.65684699  0.07705364     0.17800
H2429       H  0.03636917  0.59853295  0.06829242     0.17800
N2430       N  0.03182231  0.64519107  0.02511471    -0.88900
H2431       H  0.09082000  0.59381131  0.10024124     0.35200
H2432       H  0.08432210  0.60529178  0.15592039     0.40300
H2433       H  0.02304622  0.64415485  0.05161639     0.39900
H2434       H  0.02917227  0.63197889  0.99622297     0.34800
C2435       C  0.11700766  0.74050347  0.08990082    -0.26900
C2436       C  0.11084252  0.75630761  0.05147517    -0.15000
C2437       C  0.12083777  0.77103629  0.02066820     0.35600
C2438       C  0.13659118  0.77047735  0.02981058    -0.26400
C2439       C  0.14282171  0.75584001  0.06979321    -0.15600
C2440       C  0.13285802  0.74026029  0.09963415     0.36700
N2441       N  0.13833166  0.72523858  0.14154000    -0.89900
H2442       H  0.10939407  0.72934171  0.11408044     0.17800
H2443       H  0.14403159  0.78215412  0.00591837     0.17800
N2444       N  0.11530537  0.78673495  0.97969242    -0.88900
H2445       H  0.14415630  0.73800382  0.16588506     0.35200
H2446       H  0.14597321  0.71096595  0.12856062     0.40300
H2447       H  0.10828247  0.80167978  0.99361489     0.39900
H2448       H  0.10879273  0.77459591  0.95606170     0.34800
C2449       C  0.06728468  0.72440276  0.76487656    -0.26900
C2450       C  0.06150073  0.74487335  0.79492697    -0.15000
C2451       C  0.05486774  0.76717278  0.77156772     0.35600
C2452       C  0.05479322  0.76903363  0.71913026    -0.26400
C2453       C  0.06090578  0.74893928  0.68895302    -0.15600
C2454       C  0.06717711  0.72622315  0.71222435     0.36700
N2455       N  0.07376595  0.70541508  0.68269340    -0.89900
H2456       H  0.07216489  0.70705302  0.78260694     0.17800
H2457       H  0.04981505  0.78636740  0.70164874     0.17800
N2458       N  0.04781142  0.78753353  0.80098039    -0.88900
H2459       H  0.07749718  0.68990067  0.70560071     0.35200
H2460       H  0.08354012  0.71308701  0.66528472     0.40300
H2461       H  0.03824606  0.77910387  0.81827979     0.39900
H2462       H  0.04367844  0.80273675  0.77806970     0.34800
C2463       C  0.06010384  0.77054892  0.27455441    -0.26900
C2464       C  0.06628746  0.74715736  0.29429264    -0.15000
C2465       C  0.07115250  0.72712075  0.26126863     0.35600
C2466       C  0.06958034  0.73068779  0.20945155    -0.26400
C2467       C  0.06326040  0.75398617  0.18970236    -0.15600
C2468       C  0.05835540  0.77407330  0.22270444     0.36700
N2469       N  0.05130045  0.79771030  0.20358026    -0.89900
H2470       H  0.05598459  0.78570932  0.29975452     0.17800
H2471       H  0.07366104  0.71535741  0.18453698     0.17800
N2472       N  0.07789706  0.70326905  0.28009446    -0.88900
H2473       H  0.04842690  0.81049699  0.23280239     0.35200
H2474       H  0.04100222  0.79214680  0.18635416     0.40300
H2475       H  0.08887740  0.70158587  0.26490158     0.39900
H2476       H  0.07133731  0.68728630  0.26727239     0.34800
C2477       C  0.07445056  0.61421838  0.58697226    -0.26900
C2478       C  0.06057247  0.60029824  0.58846372    -0.15000
C2479       C  0.04722798  0.61156833  0.56788582     0.35600
C2480       C  0.04803130  0.63687802  0.54633439    -0.26400
C2481       C  0.06185705  0.65120544  0.54569653    -0.15600
C2482       C  0.07522442  0.63962814  0.56653689     0.36700
N2483       N  0.08979851  0.65278745  0.56656286    -0.89900
H2484       H  0.08471981  0.60544862  0.60273522     0.17800
H2485       H  0.03777091  0.64557068  0.53042853     0.17800
N2486       N  0.03300296  0.59712709  0.56839151    -0.88900
H2487       H  0.08911013  0.66974905  0.58873292     0.35200
H2488       H  0.09250046  0.65816956  0.52979737     0.40300
H2489       H  0.03439789  0.58035217  0.54602356     0.39900
H2490       H  0.02426551  0.60828002  0.55186537     0.34800
C2491       C  0.11790649  0.77415302  0.60001036    -0.26900
C2492       C  0.11111577  0.75599207  0.56668793    -0.15000
C2493       C  0.12055607  0.73631611  0.54477828     0.35600
C2494       C  0.13641486  0.73648261  0.55411144    -0.26400
C2495       C  0.14315971  0.75585577  0.58472259    -0.15600
C2496       C  0.13366416  0.77435441  0.60906211     0.36700
N2497       N  0.13966483  0.79344992  0.64369775    -0.89900
H2498       H  0.11094001  0.78873909  0.61890526     0.17800
H2499       H  0.14359692  0.72208352  0.53554752     0.17800
N2500       N  0.11458667  0.71652189  0.51164274    -0.88900
H2501       H  0.14687994  0.80654703  0.62470497     0.35200
H2502       H  0.14599322  0.78351093  0.67119233     0.40300
H2503       H  0.10904646  0.72586938  0.48170989     0.39900
H2504       H  0.10672465  0.70483228  0.53122678     0.34800
C2505       C  0.24212110  0.22948559  0.00185649    -0.26900
C2506       C  0.23543586  0.24825340  0.96959198    -0.15000
C2507       C  0.24270629  0.27309512  0.96368260     0.35600
C2508       C  0.25638608  0.27850754  0.99000718    -0.26400
C2509       C  0.26312636  0.25966721  0.02207581    -0.15600
C2510       C  0.25573960  0.23491365  0.02835367     0.36700
N2511       N  0.26199230  0.21537829  0.06184851    -0.89900
H2512       H  0.23642134  0.21066494  0.00779371     0.17800
H2513       H  0.26208122  0.29732493  0.98404767     0.17800
N2514       N  0.23630334  0.29265951  0.93058495    -0.88900
H2515       H  0.25526549  0.19821504  0.06181861     0.35200
H2516       H  0.26149950  0.22309183  0.09812755     0.40300
H2517       H  0.23674969  0.28508600  0.89419269     0.39900
H2518       H  0.24297103  0.30989000  0.93072498     0.34800
C2519       C  0.19828438  0.36933916  0.89844746    -0.26900
C2520       C  0.19238999  0.34980610  0.93068384    -0.15000
C2521       C  0.18669546  0.35711234  0.97790677     0.35600
C2522       C  0.18626169  0.38405574  0.99064202    -0.26400
C2523       C  0.19131063  0.40376314  0.95699655    -0.15600
C2524       C  0.19782315  0.39614586  0.91112958     0.36700
N2525       N  0.20341262  0.41548501  0.87635139    -0.89900
H2526       H  0.20280850  0.36381065  0.86218364     0.17800
H2527       H  0.18156683  0.38971505  0.02656808     0.17800
N2528       N  0.18078742  0.33740830  0.01171646    -0.88900
H2529       H  0.19741553  0.41317021  0.84265947     0.35200
H2530       H  0.21495802  0.41147680  0.86947234     0.40300
H2531       H  0.17103048  0.32906425  0.99514834     0.39900
H2532       H  0.17718439  0.34612800  0.04513379     0.34800
C2533       C  0.25836246  0.22997984  0.51230623    -0.26900
C2534       C  0.26141773  0.25540948  0.53161022    -0.15000
C2535       C  0.25017628  0.27518237  0.52507429     0.35600
C2536       C  0.23664056  0.26955802  0.49832862    -0.26400
C2537       C  0.23376438  0.24435616  0.47788169    -0.15600
C2538       C  0.24478234  0.22432852  0.48569466     0.36700
N2539       N  0.24244221  0.19829446  0.46591504    -0.89900
H2540       H  0.26680122  0.21443754  0.51624071     0.17800
H2541       H  0.22817373  0.28506633  0.49449574     0.17800
N2542       N  0.25234768  0.30107439  0.54569148    -0.88900
H2543       H  0.24278720  0.18486558  0.49574208     0.35200
H2544       H  0.25155090  0.19400679  0.44195455     0.40300
H2545       H  0.24327194  0.30488368  0.57007400     0.39900
H2546       H  0.25181329  0.31478847  0.51636657     0.34800
C2547       C  0.18881274  0.35492404  0.47853704    -0.26900
C2548       C  0.19296628  0.34847677  0.42949648    -0.15000
C2549       C  0.19784026  0.36876999  0.39647261     0.35600
C2550       C  0.19719759  0.39525311  0.41179548    -0.26400
C2551       C  0.19193336  0.40191030  0.45955475    -0.15600
C2552       C  0.18827977  0.38144903  0.49388784     0.36700
N2553       N  0.18399295  0.38748191  0.54435289    -0.89900
H2554       H  0.18528888  0.33948655  0.50429562     0.17800
H2555       H  0.20037729  0.41077559  0.38573774     0.17800
N2556       N  0.20318969  0.36237197  0.34706479    -0.88900
H2557       H  0.19169761  0.37803547  0.56850177     0.35200
H2558       H  0.17308828  0.37955413  0.55074960     0.40300
H2559       H  0.21321724  0.35131007  0.35119419     0.39900
H2560       H  0.20619281  0.37951680  0.32737712     0.34800
C2561       C  0.18758587  0.22158506  0.60907952    -0.26900
C2562       C  0.18395120  0.24315380  0.57756777    -0.15000
C2563       C  0.18082681  0.26783386  0.59981097     0.35600
C2564       C  0.18172059  0.27059192  0.65197607    -0.26400
C2565       C  0.18573171  0.24925723  0.68331928    -0.15600
C2566       C  0.18847603  0.22429878  0.66146965     0.36700
N2567       N  0.19216111  0.20178372  0.69222055    -0.89900
H2568       H  0.19006659  0.20246029  0.59285881     0.17800
H2569       H  0.17946941  0.28988963  0.66788905     0.17800
N2570       N  0.17691127  0.29036640  0.56982185    -0.88900
H2571       H  0.19429826  0.18514652  0.67014160     0.35200
H2572       H  0.18248032  0.19727835  0.71361932     0.40300
H2573       H  0.18498331  0.30526070  0.57682743     0.39900
H2574       H  0.16619512  0.29719379  0.58133970     0.34800
C2575       C  0.17746779  0.26473972  0.15267828    -0.26900
C2576       C  0.18676418  0.24829643  0.18285826    -0.15000
C2577       C  0.19572478  0.22872061  0.15926034     0.35600
C2578       C  0.19526441  0.22631133  0.10678958    -0.26400
C2579       C  0.18622941  0.24311221  0.07669556    -0.15600
C2580       C  0.17706408  0.26232715  0.10013094     0.36700
N2581       N  0.16728683  0.27917560  0.07072035    -0.89900
H2582       H  0.17037515  0.27963032  0.17009912     0.17800
H2583       H  0.20246345  0.21162916  0.08916117     0.17800
N2584       N  0.20547894  0.21160032  0.18820153    -0.88900
H2585       H  0.16139784  0.29241926  0.09364282     0.35200
H2586       H  0.15899160  0.26716364  0.05372703     0.40300
H2587       H  0.21427623  0.22325015  0.20328429     0.39900
H2588       H  0.21076473  0.19761774  0.16526362     0.34800
C2589       C  0.06050374  0.36679382  0.74021041    -0.26900
C2590       C  0.06330492  0.34957122  0.70023093    -0.15000
C2591       C  0.06619874  0.35992578  0.65219070     0.35600
C2592       C  0.06680090  0.38734993  0.64559786    -0.26400
C2593       C  0.06449154  0.40471615  0.68610428    -0.15600
C2594       C  0.06097203  0.39421565  0.73349235     0.36700
N2595       N  0.05853253  0.41118532  0.77542375    -0.89900
H2596       H  0.05830701  0.35887672  0.77729693     0.17800
H2597       H  0.06930721  0.39511748  0.60863317     0.17800
N2598       N  0.06925877  0.34315549  0.61022574    -0.88900
H2599       H  0.06658148  0.40629654  0.80302010     0.35200
H2600       H  0.04762119  0.40718792  0.78968247     0.40300
H2601       H  0.05972506  0.33096637  0.60433087     0.39900
H2602       H  0.07866180  0.33122950  0.61899309     0.34800
C2603       C  0.11647566  0.27193634  0.85425293    -0.26900
C2604       C  0.11016336  0.25708491  0.81467922    -0.15000
C2605       C  0.11995688  0.24103849  0.78569183     0.35600
C2606       C  0.13579783  0.24166055  0.79471180    -0.26400
C2607       C  0.14215299  0.25790647  0.83224561    -0.15600
C2608       C  0.13223192  0.27244049  0.86346388     0.36700
N2609       N  0.13773339  0.28745433  0.90539072    -0.89900
H2610       H  0.10908125  0.28361241  0.87805279     0.17800
H2611       H  0.14324980  0.23022656  0.77069653     0.17800
N2612       N  0.11430370  0.22489491  0.74558133    -0.88900
H2613       H  0.14454200  0.30306547  0.89258776     0.35200
H2614       H  0.14434399  0.27506390  0.92818248     0.40300
H2615       H  0.10832396  0.23690291  0.72033252     0.39900
H2616       H  0.10678790  0.21078503  0.76037293     0.34800
C2617       C  0.06302140  0.38787150  0.14760123    -0.26900
C2618       C  0.06132452  0.40550191  0.18791153    -0.15000
C2619       C  0.05858400  0.39536057  0.23630670     0.35600
C2620       C  0.05849044  0.36777638  0.24362007    -0.26400
C2621       C  0.06076607  0.35023978  0.20347896    -0.15600
C2622       C  0.06263775  0.36051463  0.15481544     0.36700
N2623       N  0.06464147  0.34370996  0.11233135    -0.89900
H2624       H  0.06484024  0.39543538  0.11004606     0.17800
H2625       H  0.05696844  0.35987234  0.28105998     0.17800
N2626       N  0.05643542  0.41294415  0.27794738    -0.88900
H2627       H  0.05480858  0.33203955  0.10903172     0.35200
H2628       H  0.07405462  0.33142733  0.11887741     0.40300
H2629       H  0.06670643  0.42325624  0.28356155     0.39900
H2630       H  0.05438160  0.40222540  0.31080347     0.34800
C2631       C  0.06853206  0.22755906  0.01368126    -0.26900
C2632       C  0.06341457  0.24809550  0.04473978    -0.15000
C2633       C  0.05717395  0.27107830  0.02270915     0.35600
C2634       C  0.05677644  0.27348671  0.97040669    -0.26400
C2635       C  0.06189397  0.25302534  0.93924067    -0.15600
C2636       C  0.06789376  0.22974244  0.96123465     0.36700
N2637       N  0.07357726  0.20860019  0.93053998    -0.89900
H2638       H  0.07311114  0.20970320  0.03044382     0.17800
H2639       H  0.05210579  0.29132203  0.95385564     0.17800
N2640       N  0.05063887  0.29143575  0.05331625    -0.88900
H2641       H  0.07714080  0.19265617  0.95265139     0.35200
H2642       H  0.08333579  0.21560529  0.91207583     0.40300
H2643       H  0.04103776  0.28339737  0.07117250     0.39900
H2644       H  0.04664885  0.30708061  0.03121696     0.34800
C2645       C  0.06947028  0.22830663  0.51405814    -0.26900
C2646       C  0.06225394  0.24686425  0.54493148    -0.15000
C2647       C  0.05358950  0.26742610  0.52301556     0.35600
C2648       C  0.05284092  0.26955573  0.47061749    -0.26400
C2649       C  0.06017990  0.25114376  0.43960337    -0.15600
C2650       C  0.06857880  0.23032980  0.46171846     0.36700
N2651       N  0.07666932  0.21174212  0.43128970    -0.89900
H2652       H  0.07594387  0.21224653  0.53067081     0.17800
H2653       H  0.04637260  0.28557079  0.45385448     0.17800
N2654       N  0.04520429  0.28555765  0.55396146    -0.88900
H2655       H  0.07266973  0.19276146  0.43997103     0.35200
H2656       H  0.08829130  0.21270606  0.44083109     0.40300
H2657       H  0.03670753  0.27472799  0.57252351     0.39900
H2658       H  0.03950524  0.29957989  0.53196833     0.34800
C2659       C  0.11804904  0.24076064  0.28976567    -0.26900
C2660       C  0.10918274  0.25890715  0.31687356    -0.15000
C2661       C  0.11647442  0.27489135  0.35330600     0.35600
C2662       C  0.13241789  0.27383948  0.35938930    -0.26400
C2663       C  0.14139736  0.25673406  0.33052011    -0.15600
C2664       C  0.13405686  0.23961016  0.29614470     0.36700
N2665       N  0.14284697  0.22195505  0.26585096    -0.89900
H2666       H  0.11263207  0.22806706  0.26216945     0.17800
H2667       H  0.13783443  0.28679938  0.38655701     0.17800
N2668       N  0.10772772  0.29207169  0.38474926    -0.88900
H2669       H  0.14077221  0.22655804  0.22822747     0.35200
H2670       H  0.13890037  0.20270371  0.27237176     0.40300
H2671       H  0.11175571  0.31139746  0.37970931     0.39900
H2672       H  0.10972070  0.28666807  0.42203947     0.34800
C2673       C  0.06122056  0.86754977  0.99219293    -0.26900
C2674       C  0.06002620  0.84973056  0.95186792    -0.15000
C2675       C  0.05693657  0.85941296  0.90338455     0.35600
C2676       C  0.05605496  0.88686556  0.89584192    -0.26400
C2677       C  0.05802929  0.90464452  0.93580393    -0.15600
C2678       C  0.06013552  0.89483880  0.98469576     0.36700
N2679       N  0.06199933  0.91210439  0.02681506    -0.89900
H2680       H  0.06334403  0.86021114  0.02976460     0.17800
H2681       H  0.05444612  0.89453176  0.85823226     0.17800
N2682       N  0.05541357  0.84154586  0.86180778    -0.88900
H2683       H  0.05213159  0.92362977  0.03000961     0.35200
H2684       H  0.07132829  0.92464466  0.02012786     0.40300
H2685       H  0.06601575  0.83240295  0.85659631     0.39900
H2686       H  0.05302403  0.85194160  0.82880269     0.34800
C2687       C  0.04550005  0.11575031  0.83551094    -0.26900
C2688       C  0.05932001  0.10171795  0.83910950    -0.15000
C2689       C  0.07306001  0.11379951  0.82285298     0.35600
C2690       C  0.07266036  0.13966212  0.80344787    -0.26400
C2691       C  0.05879974  0.15339860  0.79880974    -0.15600
C2692       C  0.04506336  0.14121161  0.81490164     0.36700
N2693       N  0.03058877  0.15441965  0.81191850    -0.89900
H2694       H  0.03490572  0.10668628  0.84804392     0.17800
H2695       H  0.08318869  0.14902976  0.79111916     0.17800
N2696       N  0.08737590  0.09993488  0.82668686    -0.88900
H2697       H  0.02806940  0.15825069  0.77431221     0.35200
H2698       H  0.03147015  0.17240381  0.83102233     0.40300
H2699       H  0.08969778  0.09702163  0.86475404     0.39900
H2700       H  0.09634031  0.11149312  0.81256139     0.34800
C2701       C  0.06176398  0.89487495  0.48291258    -0.26900
C2702       C  0.06159247  0.90372992  0.43321657    -0.15000
C2703       C  0.06126603  0.88500832  0.39378970     0.35600
C2704       C  0.06186295  0.85782318  0.40493384    -0.26400
C2705       C  0.06292883  0.84903103  0.45457425    -0.15600
C2706       C  0.06254699  0.86773654  0.49387726     0.36700
N2707       N  0.06285292  0.85920776  0.54509030    -0.89900
H2708       H  0.06184784  0.90906280  0.51331778     0.17800
H2709       H  0.06196024  0.84350500  0.37476394     0.17800
N2710       N  0.06039469  0.89372665  0.34253441    -0.88900
H2711       H  0.05297888  0.86624647  0.56259602     0.35200
H2712       H  0.07234451  0.86793988  0.56255943     0.40300
H2713       H  0.04987815  0.90326460  0.33771648     0.39900
H2714       H  0.06035085  0.87755825  0.31815265     0.34800
C2715       C  0.06541287  0.02752099  0.62136458    -0.26900
C2716       C  0.06214851  0.00559140  0.59086405    -0.15000
C2717       C  0.05816460  0.98124299  0.61340514     0.35600
C2718       C  0.05770641  0.97943778  0.66584765    -0.26400
C2719       C  0.06096689  0.00142692  0.69649913    -0.15600
C2720       C  0.06489266  0.02579106  0.67348259     0.36700
N2721       N  0.06882264  0.04900063  0.70156186    -0.89900
H2722       H  0.06843822  0.04635020  0.60452188     0.17800
H2723       H  0.05465449  0.96067221  0.68284828     0.17800
N2724       N  0.05427134  0.95861554  0.58323895    -0.88900
H2725       H  0.07803888  0.04466213  0.72530144     0.35200
H2726       H  0.05936075  0.05478756  0.72271079     0.40300
H2727       H  0.04409447  0.96294659  0.56418296     0.39900
H2728       H  0.05195683  0.94214186  0.60576201     0.34800
C2729       C  0.06530904  0.02292349  0.17673040    -0.26900
C2730       C  0.05799315  0.00034626  0.19624947    -0.15000
C2731       C  0.05277235  0.98065191  0.16259487     0.35600
C2732       C  0.05472660  0.98408437  0.11085520    -0.26400
C2733       C  0.06181921  0.00684653  0.09139144    -0.15600
C2734       C  0.06734548  0.02624506  0.12496266     0.36700
N2735       N  0.07531568  0.04914408  0.10682957    -0.89900
H2736       H  0.06989541  0.03784950  0.20179887     0.17800
H2737       H  0.05023076  0.96909506  0.08574072     0.17800
N2738       N  0.04528551  0.95721931  0.18051734    -0.88900
H2739       H  0.08625813  0.04937248  0.12293719     0.35200
H2740       H  0.06947600  0.06592600  0.11915921     0.40300
H2741       H  0.05151108  0.94085054  0.16819224     0.39900
H2742       H  0.03437200  0.95627863  0.16429405     0.34800
C2743       C  0.04887214  0.13453508  0.28431370    -0.26900
C2744       C  0.06092720  0.15210060  0.29587863    -0.15000
C2745       C  0.07290858  0.14347033  0.32796892     0.35600
C2746       C  0.07229866  0.11783926  0.34840477    -0.26400
C2747       C  0.06009268  0.10079578  0.33727532    -0.15600
C2748       C  0.04833541  0.10913643  0.30481500     0.36700
N2749       N  0.03575361  0.09211686  0.29202926    -0.89900
H2750       H  0.03963859  0.14063278  0.25966895     0.17800
H2751       H  0.08133573  0.11112873  0.37328619     0.17800
N2752       N  0.08566003  0.16053552  0.33953722    -0.88900
H2753       H  0.03004565  0.08686486  0.32496557     0.35200
H2754       H  0.04014626  0.07492641  0.27585355     0.40300
H2755       H  0.09180577  0.16350505  0.30643233     0.39900
H2756       H  0.09316790  0.15136268  0.36470876     0.34800
C2757       C  0.26026786  0.02379106  0.61005229    -0.26900
C2758       C  0.26326802  0.99949911  0.58644310    -0.15000
C2759       C  0.25157380  0.98019943  0.58492392     0.35600
C2760       C  0.23758699  0.98487996  0.60922356    -0.26400
C2761       C  0.23477310  0.00883247  0.63444763    -0.15600
C2762       C  0.24621437  0.02866755  0.63361624     0.36700
N2763       N  0.24376980  0.05372504  0.65719428    -0.89900
H2764       H  0.26907210  0.03894565  0.61183927     0.17800
H2765       H  0.22873053  0.96982884  0.60715032     0.17800
N2766       N  0.25371521  0.95599831  0.55804803    -0.88900
H2767       H  0.24502310  0.06850306  0.63002478     0.35200
H2768       H  0.25232291  0.05647549  0.68424586     0.40300
H2769       H  0.24520310  0.95471898  0.53046076     0.39900
H2770       H  0.25215353  0.94027154  0.58302529     0.34800
C2771       C  0.18776936  0.88808335  0.73177166    -0.26900
C2772       C  0.18929441  0.90487978  0.68982927    -0.15000
C2773       C  0.19271504  0.89387467  0.64276306     0.35600
C2774       C  0.19383412  0.86627512  0.63827017    -0.26400
C2775       C  0.19176762  0.84953557  0.67982472    -0.15600
C2776       C  0.18908764  0.86048535  0.72729928     0.36700
N2777       N  0.18680790  0.84355627  0.76999176    -0.89900
H2778       H  0.18533976  0.89652649  0.76816529     0.17800
H2779       H  0.19580727  0.85763715  0.60172104     0.17800
N2780       N  0.19439988  0.91055624  0.59944182    -0.88900
H2781       H  0.18436140  0.85477158  0.80183203     0.35200
H2782       H  0.19717177  0.83395253  0.77726607     0.40300
H2783       H  0.18377259  0.91931390  0.59242575     0.39900
H2784       H  0.19700756  0.89928135  0.56781772     0.34800
C2785       C  0.20383082  0.11273894  0.79100971    -0.26900
C2786       C  0.18953150  0.10227422  0.77681910    -0.15000
C2787       C  0.17614572  0.11765291  0.78351008     0.35600
C2788       C  0.17748757  0.14284956  0.80490595    -0.26400
C2789       C  0.19176273  0.15310685  0.81972082    -0.15600
C2790       C  0.20509840  0.13798669  0.81247860     0.36700
N2791       N  0.21987264  0.14848696  0.82608103    -0.89900
H2792       H  0.21407751  0.10107333  0.78537052     0.17800
H2793       H  0.16722120  0.15451206  0.81022680     0.17800
N2794       N  0.16112143  0.10885246  0.76832970    -0.88900
H2795       H  0.22199243  0.16487067  0.80311710     0.35200
H2796       H  0.22849374  0.13476241  0.81854713     0.40300
H2797       H  0.16137325  0.09050013  0.75068102     0.39900
H2798       H  0.15705989  0.12218568  0.74142982     0.34800
C2799       C  0.11567368  0.01575919  0.79906928    -0.26900
C2800       C  0.10958773  0.99575007  0.82989628    -0.15000
C2801       C  0.11949371  0.97611164  0.84863707     0.35600
C2802       C  0.13501003  0.97627302  0.83535231    -0.26400
C2803       C  0.14110382  0.99550436  0.80267370    -0.15600
C2804       C  0.13126075  0.01567118  0.78494979     0.36700
N2805       N  0.13682900  0.03553883  0.75125465    -0.89900
H2806       H  0.10814910  0.03078290  0.78379185     0.17800
H2807       H  0.14228385  0.96088607  0.85059739     0.17800
N2808       N  0.11380861  0.95576422  0.88117818    -0.88900
H2809       H  0.13493868  0.05404040  0.76749531     0.35200
H2810       H  0.13037231  0.03448068  0.71822982     0.40300
H2811       H  0.11999616  0.95658872  0.91476465     0.39900
H2812       H  0.11594607  0.93746944  0.86441797     0.34800
C2813       C  0.24070779  0.02695111  0.10548552    -0.26900
C2814       C  0.23393837  0.00872000  0.13877433    -0.15000
C2815       C  0.24189528  0.98512139  0.14976947     0.35600
C2816       C  0.25619333  0.98026808  0.12757985    -0.26400
C2817       C  0.26296080  0.99849568  0.09427343    -0.15600
C2818       C  0.25498137  0.02205911  0.08316717     0.36700
N2819       N  0.26115131  0.04097603  0.04859378    -0.89900
H2820       H  0.23471125  0.04493105  0.09539257     0.17800
H2821       H  0.26217192  0.96225436  0.13756592     0.17800
N2822       N  0.23563676  0.96606077  0.18388906    -0.88900
H2823       H  0.26230209  0.05907386  0.06716965     0.35200
H2824       H  0.25326440  0.04343426  0.01937695     0.40300
H2825       H  0.24346767  0.96340928  0.21320175     0.39900
H2826       H  0.23448619  0.94806794  0.16495145     0.34800
C2827       C  0.18974836  0.88875865  0.23033105    -0.26900
C2828       C  0.18880102  0.90453182  0.18697519    -0.15000
C2829       C  0.18907494  0.89256622  0.13964767     0.35600
C2830       C  0.18944535  0.86490111  0.13642500    -0.26400
C2831       C  0.18976567  0.84901447  0.17985125    -0.15600
C2832       C  0.19037950  0.86118497  0.22726368     0.36700
N2833       N  0.19081194  0.84612465  0.27275872    -0.89900
H2834       H  0.18958912  0.89796223  0.26698553     0.17800
H2835       H  0.18905048  0.85573951  0.09974147     0.17800
N2836       N  0.18813145  0.90829958  0.09505818    -0.88900
H2837       H  0.20076617  0.83469214  0.27291524     0.35200
H2838       H  0.18130425  0.83348227  0.27347808     0.40300
H2839       H  0.17837240  0.90242512  0.07506304     0.39900
H2840       H  0.19771915  0.90417623  0.07307879     0.34800
C2841       C  0.17994127  0.02576985  0.99269697    -0.26900
C2842       C  0.18677975  0.00685215  0.02404319    -0.15000
C2843       C  0.19532330  0.98608073  0.00272132     0.35600
C2844       C  0.19662464  0.98451503  0.95046605    -0.26400
C2845       C  0.18971271  0.00333663  0.91892690    -0.15600
C2846       C  0.18109061  0.02406040  0.94037718     0.36700
N2847       N  0.17313436  0.04281006  0.90920604    -0.89900
H2848       H  0.17348292  0.04180300  0.00917677     0.17800
H2849       H  0.20313869  0.96848020  0.93424683     0.17800
N2850       N  0.20299573  0.96707070  0.03410255    -0.88900
H2851       H  0.16764697  0.05705692  0.93102407     0.35200
H2852       H  0.16447370  0.03254777  0.89014756     0.40300
H2853       H  0.21157537  0.97709436  0.05398214     0.39900
H2854       H  0.20853161  0.95282241  0.01242231     0.34800
C2855       C  0.19559389  0.02411388  0.49324638    -0.26900
C2856       C  0.18713247  0.00676558  0.52405060    -0.15000
C2857       C  0.17887425  0.98589406  0.50169101     0.35600
C2858       C  0.17906509  0.98294479  0.44951698    -0.26400
C2859       C  0.18736799  0.00046910  0.41874775    -0.15600
C2860       C  0.19580625  0.02110807  0.44104985     0.36700
N2861       N  0.20492183  0.03862665  0.41111492    -0.89900
H2862       H  0.20232359  0.03994321  0.50973685     0.17800
H2863       H  0.17240356  0.96704560  0.43296456     0.17800
N2864       N  0.16999437  0.96797533  0.53151197    -0.88900
H2865       H  0.21630363  0.03712692  0.42314749     0.35200
H2866       H  0.20127556  0.05796994  0.41782140     0.40300
H2867       H  0.17388874  0.94880024  0.52458949     0.39900
H2868       H  0.15858993  0.96907196  0.51956080     0.34800
C2869       C  0.18938569  0.10362643  0.32938476    -0.26900
C2870       C  0.19011858  0.10130675  0.27709865    -0.15000
C2871       C  0.19165868  0.12430109  0.24748534     0.35600
C2872       C  0.19224089  0.14915852  0.27054847    -0.26400
C2873       C  0.19167502  0.15142109  0.32284047    -0.15600
C2874       C  0.19038194  0.12844935  0.35249161     0.36700
N2875       N  0.18965132  0.13030732  0.40597297    -0.89900
H2876       H  0.18821125  0.08608195  0.35245003     0.17800
H2877       H  0.19319858  0.16675742  0.24748619     0.17800
N2878       N  0.19222625  0.12255863  0.19395411    -0.88900
H2879       H  0.19862925  0.11914636  0.42101838     0.35200
H2880       H  0.17933440  0.12176214  0.41766745     0.40300
H2881       H  0.20247502  0.13125831  0.18201334     0.39900
H2882       H  0.18316362  0.13363272  0.17922813     0.34800
C2883       C  0.13184501  0.01776750  0.31215451    -0.26900
C2884       C  0.13816778  0.99700138  0.28416879    -0.15000
C2885       C  0.12850307  0.97652529  0.26709391     0.35600
C2886       C  0.11309155  0.97609623  0.28079528    -0.26400
C2887       C  0.10681412  0.99582734  0.31145907    -0.15600
C2888       C  0.11625424  0.01736720  0.32597395     0.36700
N2889       N  0.11026118  0.03845469  0.35573666    -0.89900
H2890       H  0.13916264  0.03366254  0.32544518     0.17800
H2891       H  0.10605375  0.95986009  0.26740485     0.17800
N2892       N  0.13435360  0.95586186  0.23591671    -0.88900
H2893       H  0.11185189  0.05616707  0.33610295     0.35200
H2894       H  0.11665570  0.03951628  0.38888428     0.40300
H2895       H  0.12806747  0.95575538  0.20248661     0.39900
H2896       H  0.13249162  0.93779157  0.25408032     0.34800
C2897       C  0.81914590  0.02150740  0.48335491    -0.26900
C2898       C  0.81212388  0.99887031  0.46328420    -0.15000
C2899       C  0.80463305  0.98091354  0.49592846     0.35600
C2900       C  0.80480190  0.98558618  0.54773775    -0.26400
C2901       C  0.81186688  0.00814146  0.56791363    -0.15600
C2902       C  0.81922321  0.02630233  0.53517208     0.36700
N2903       N  0.82699909  0.04930493  0.55443436    -0.89900
H2904       H  0.82475898  0.03544498  0.45849433     0.17800
H2905       H  0.79904626  0.97176113  0.57245330     0.17800
N2906       N  0.79641023  0.95844478  0.47641792    -0.88900
H2907       H  0.83139471  0.06087456  0.52527524     0.35200
H2908       H  0.83642650  0.04273238  0.57524663     0.40300
H2909       H  0.78709923  0.96565740  0.45581076     0.39900
H2910       H  0.79180279  0.94704434  0.50545389     0.34800
C2911       C  0.80950129  0.02716151  0.98228165    -0.26900
C2912       C  0.80792084  0.00137901  0.96322195    -0.15000
C2913       C  0.80603655  0.98022828  0.99758016     0.35600
C2914       C  0.80593428  0.98518834  0.04918708    -0.26400
C2915       C  0.80762815  0.01088628  0.06830926    -0.15600
C2916       C  0.80933973  0.03213188  0.03400807     0.36700
N2917       N  0.81102410  0.05884871  0.05109211    -0.89900
H2918       H  0.81079198  0.04379879  0.95696470     0.17800
H2919       H  0.80463538  0.96852080  0.07442060     0.17800
N2920       N  0.80418576  0.95351739  0.98068857    -0.88900
H2921       H  0.80217076  0.07008925  0.03546598     0.35200
H2922       H  0.82142422  0.06627655  0.03760597     0.40300
H2923       H  0.79372665  0.94634059  0.99417276     0.39900
H2924       H  0.81295517  0.94212384  0.99641233     0.34800
C2925       C  0.98859771  0.02281456  0.50546260    -0.26900
C2926       C  0.98586875  0.99916266  0.53195747    -0.15000
C2927       C  0.99748162  0.97987306  0.53337363     0.35600
C2928       C  0.01130088  0.98420736  0.50782627    -0.26400
C2929       C  0.01403401  0.00768817  0.48080111    -0.15600
C2930       C  0.00246556  0.02726659  0.47976914     0.36700
N2931       N  0.00470775  0.05145495  0.45227027    -0.89900
H2932       H  0.97963361  0.03755418  0.50315676     0.17800
H2933       H  0.02011707  0.96922972  0.51038642     0.17800
N2934       N  0.99542063  0.95595140  0.56143912    -0.88900
H2935       H  0.99518047  0.06379701  0.45571088     0.35200
H2936       H  0.00552654  0.04655395  0.41433484     0.40300
H2937       H  0.00415835  0.95486807  0.58827972     0.39900
H2938       H  0.99667034  0.93998843  0.53695674     0.34800
C2939       C  0.88138085  0.99104362  0.66087910    -0.26900
C2940       C  0.89089762  0.00676939  0.69138695    -0.15000
C2941       C  0.88425084  0.02078031  0.73154327     0.35600
C2942       C  0.86835912  0.02028940  0.73842401    -0.26400
C2943       C  0.85874206  0.00577228  0.70656829    -0.15600
C2944       C  0.86535491  0.99055030  0.66754890     0.36700
N2945       N  0.85627642  0.97532993  0.63283347    -0.89900
H2946       H  0.88632859  0.97998619  0.63022351     0.17800
H2947       H  0.86343472  0.03195096  0.76834415     0.17800
N2948       N  0.89361992  0.03559342  0.76572927    -0.88900
H2949       H  0.85772665  0.98364632  0.59725776     0.35200
H2950       H  0.84460770  0.97638699  0.64073619     0.40300
H2951       H  0.89178908  0.02818261  0.80182326     0.39900
H2952       H  0.88999769  0.05528529  0.76494457     0.34800
C2953       C  0.98972863  0.02457507  0.01395266    -0.26900
C2954       C  0.98631420  0.99900083  0.03208876    -0.15000
C2955       C  0.99710469  0.97868963  0.02404958     0.35600
C2956       C  0.01073112  0.98409194  0.99822338    -0.26400
C2957       C  0.01414886  0.00953571  0.98000853    -0.15600
C2958       C  0.00339316  0.02999586  0.98762631     0.36700
N2959       N  0.00624639  0.05608137  0.96812075    -0.89900
H2960       H  0.98146078  0.04029609  0.01872243     0.17800
H2961       H  0.01893962  0.96823015  0.99387472     0.17800
N2962       N  0.99442957  0.95245254  0.04249647    -0.88900
H2963       H  0.99723530  0.06880710  0.97694860     0.35200
H2964       H  0.00646696  0.05467215  0.92904617     0.40300
H2965       H  0.00344493  0.94747579  0.06660870     0.39900
H2966       H  0.99464308  0.93946388  0.01206100     0.34800
C2967       C  0.94773111  0.01928891  0.84405236    -0.26900
C2968       C  0.94094583  0.99995495  0.81332208    -0.15000
C2969       C  0.93382604  0.97780953  0.83576038     0.35600
C2970       C  0.93334612  0.97574038  0.88811542    -0.26400
C2971       C  0.93972698  0.99550167  0.91869715    -0.15600
C2972       C  0.94735832  0.01716959  0.89639703     0.36700
N2973       N  0.95505331  0.03656351  0.92687101    -0.89900
H2974       H  0.95338706  0.03618721  0.82713214     0.17800
H2975       H  0.92773837  0.95876029  0.90494424     0.17800
N2976       N  0.92657956  0.95785403  0.80576212    -0.88900
H2977       H  0.96000243  0.05131405  0.90461157     0.35200
H2978       H  0.96408945  0.02701918  0.94515566     0.40300
H2979       H  0.91502315  0.95682096  0.81582182     0.39900
H2980       H  0.93163565  0.93967157  0.81433877     0.34800
C2981       C  0.93384880  0.97852190  0.38808237    -0.26900
C2982       C  0.93731195  0.00025084  0.41897002    -0.15000
C2983       C  0.94112636  0.02466607  0.39649188     0.35600
C2984       C  0.94145940  0.02679774  0.34409428    -0.26400
C2985       C  0.93810490  0.00496455  0.31315075    -0.15600
C2986       C  0.93416257  0.98062696  0.33578356     0.36700
N2987       N  0.93015467  0.95804142  0.30606246    -0.89900
H2988       H  0.93086090  0.95959439  0.40457379     0.17800
H2989       H  0.94447060  0.04572341  0.32765188     0.17800
N2990       N  0.94510638  0.04717019  0.42648631    -0.88900
H2991       H  0.91905690  0.95211127  0.31570539     0.35200
H2992       H  0.93764843  0.94267057  0.31524345     0.40300
H2993       H  0.93760427  0.06254679  0.41741248     0.39900
H2994       H  0.95620315  0.05316068  0.41695261     0.34800
C2995       C  0.86650101  0.99174961  0.21384339    -0.26900
C2996       C  0.85781285  0.01121299  0.18899415    -0.15000
C2997       C  0.86519632  0.02749813  0.15282521     0.35600
C2998       C  0.88096301  0.02540270  0.14554230    -0.26400
C2999       C  0.88975496  0.00729593  0.17284764    -0.15600
C3000       C  0.88238630  0.98976194  0.20633787     0.36700
N3001       N  0.89085222  0.97079833  0.23508204    -0.89900
H3002       H  0.86105575  0.97876294  0.24083564     0.17800
H3003       H  0.88650982  0.03867607  0.11921526     0.17800
N3004       N  0.85707011  0.04619174  0.12232129    -0.88900
H3005       H  0.89914348  0.98085967  0.25615041     0.35200
H3006       H  0.89642481  0.95809742  0.21031123     0.40300
H3007       H  0.85296241  0.06148103  0.14476387     0.39900
H3008       H  0.84792209  0.03654218  0.10460402     0.34800
C3009       C  0.82090226  0.86689188  0.69066416    -0.26900
C3010       C  0.80729869  0.85275023  0.68207813    -0.15000
C3011       C  0.79308151  0.86470926  0.69276517     0.35600
C3012       C  0.79276827  0.89099654  0.70996257    -0.26400
C3013       C  0.80636375  0.90556464  0.71632644    -0.15600
C3014       C  0.82059504  0.89320990  0.70757606     0.36700
N3015       N  0.83467879  0.90734671  0.71636212    -0.89900
H3016       H  0.83180202  0.85757188  0.68293299     0.17800
H3017       H  0.78186153  0.90030059  0.71766481     0.17800
N3018       N  0.77905265  0.85005498  0.68644473    -0.88900
H3019       H  0.84410787  0.89549159  0.70786313     0.35200
H3020       H  0.83535410  0.91138623  0.75471954     0.40300
H3021       H  0.76962064  0.86171587  0.69583346     0.39900
H3022       H  0.77923872  0.83432572  0.71194270     0.34800
C3023       C  0.81753037  0.77725698  0.84112148    -0.26900
C3024       C  0.81319547  0.75254204  0.82147904    -0.15000
C3025       C  0.81070327  0.73114354  0.85502424     0.35600
C3026       C  0.81233652  0.73513647  0.90676393    -0.26400
C3027       C  0.81616446  0.76001085  0.92637449    -0.15600
C3028       C  0.81917949  0.78117835  0.89302062     0.36700
N3029       N  0.82396772  0.80654988  0.91185141    -0.89900
H3030       H  0.81993213  0.79353955  0.81585425     0.17800
H3031       H  0.80989372  0.71887943  0.93206151     0.17800
N3032       N  0.80623719  0.70547036  0.83679930    -0.88900
H3033       H  0.82563590  0.81996309  0.88248763     0.35200
H3034       H  0.83463121  0.80403208  0.92918572     0.40300
H3035       H  0.79527679  0.70725698  0.82122546     0.39900
H3036       H  0.80532431  0.69186161  0.86620374     0.34800
C3037       C  0.82379423  0.74292390  0.35048842    -0.26900
C3038       C  0.81458271  0.75927302  0.31997043    -0.15000
C3039       C  0.80530744  0.77857691  0.34317251     0.35600
C3040       C  0.80506758  0.78023725  0.39577170    -0.26400
C3041       C  0.81395231  0.76335181  0.42603000    -0.15600
C3042       C  0.82361410  0.74478786  0.40273659     0.36700
N3043       N  0.83370578  0.72808387  0.43084553    -0.89900
H3044       H  0.83124545  0.72833019  0.33373362     0.17800
H3045       H  0.79766482  0.79463724  0.41336287     0.17800
N3046       N  0.79589091  0.79602870  0.31374517    -0.88900
H3047       H  0.82715124  0.71564641  0.45345768     0.35200
H3048       H  0.84062647  0.73998131  0.45366055     0.40300
H3049       H  0.80320978  0.80901917  0.29477754     0.39900
H3050       H  0.78908923  0.80780647  0.33683513     0.34800
C3051       C  0.82133848  0.86960019  0.17447303    -0.26900
C3052       C  0.80778770  0.85462895  0.17453656    -0.15000
C3053       C  0.79410548  0.86611260  0.19206577     0.35600
C3054       C  0.79429166  0.89207443  0.21001075    -0.26400
C3055       C  0.80779447  0.90728306  0.20949663    -0.15600
C3056       C  0.82147223  0.89596830  0.19122031     0.36700
N3057       N  0.83546265  0.91109125  0.19036176    -0.89900
H3058       H  0.83179957  0.86077223  0.16064609     0.17800
H3059       H  0.78373905  0.90052973  0.22393268     0.17800
N3060       N  0.77994820  0.85167920  0.19310271    -0.88900
H3061       H  0.84437426  0.89997199  0.17509327     0.35200
H3062       H  0.83854956  0.91509966  0.22747556     0.40300
H3063       H  0.78158763  0.83437754  0.21394505     0.39900
H3064       H  0.77696767  0.84649667  0.15645436     0.34800
C3065       C  0.98971664  0.73242389  0.87718613    -0.26900
C3066       C  0.98724283  0.75670427  0.85256473    -0.15000
C3067       C  0.99857709  0.77668414  0.85633677     0.35600
C3068       C  0.01194497  0.77193645  0.88459721    -0.26400
C3069       C  0.01454136  0.74741821  0.90816982    -0.15600
C3070       C  0.00313544  0.72768895  0.90488446     0.36700
N3071       N  0.00496324  0.70296547  0.93049405    -0.89900
H3072       H  0.98095548  0.71717233  0.87637592     0.17800
H3073       H  0.02066996  0.78720563  0.88651099     0.17800
N3074       N  0.99659099  0.80160618  0.83110619    -0.88900
H3075       H  0.00426082  0.68779579  0.90400178     0.35200
H3076       H  0.99581812  0.70069959  0.95536521     0.40300
H3077       H  0.99646487  0.79785815  0.79259077     0.39900
H3078       H  0.00593460  0.81413103  0.83786754     0.34800
C3079       C  0.92809510  0.86343280  0.70048440    -0.26900
C3080       C  0.94227220  0.85134258  0.70987822    -0.15000
C3081       C  0.95593396  0.86500190  0.69766071     0.35600
C3082       C  0.95512491  0.89024823  0.67635282    -0.26400
C3083       C  0.94096519  0.90259581  0.66806922    -0.15600
C3084       C  0.92729165  0.88904556  0.68005693     0.36700
N3085       N  0.91267169  0.90114173  0.67064024    -0.89900
H3086       H  0.91761429  0.85293376  0.70961901     0.17800
H3087       H  0.96566874  0.90048448  0.66692679     0.17800
N3088       N  0.97075294  0.85350000  0.70512348    -0.88900
H3089       H  0.90376122  0.88859509  0.68183110     0.35200
H3090       H  0.91154579  0.90356579  0.63188646     0.40300
H3091       H  0.97107282  0.83533091  0.68649986     0.39900
H3092       H  0.97245706  0.85030070  0.74341404     0.34800
C3093       C  0.88473725  0.72312545  0.67466657    -0.26900
C3094       C  0.89258015  0.74565499  0.69211915    -0.15000
C3095       C  0.88417483  0.76925349  0.69921734     0.35600
C3096       C  0.86814454  0.76925008  0.69212407    -0.26400
C3097       C  0.86033118  0.74620263  0.67716219    -0.15600
C3098       C  0.86891398  0.72323885  0.66618316     0.36700
N3099       N  0.86154107  0.69996969  0.64628687    -0.89900
H3100       H  0.89095794  0.70506196  0.66726250     0.17800
H3101       H  0.86176759  0.78714570  0.69969417     0.17800
N3102       N  0.89176223  0.79322829  0.71372093    -0.88900
H3103       H  0.86943099  0.68473676  0.64083702     0.35200
H3104       H  0.85719673  0.70484672  0.61090240     0.40300
H3105       H  0.88696620  0.79969762  0.74735111     0.39900
H3106       H  0.88955645  0.80752899  0.68629263     0.34800
C3107       C  0.01431589  0.76937904  0.37447720    -0.26900
C3108       C  0.01713325  0.74513490  0.39887117    -0.15000
C3109       C  0.00562091  0.72542031  0.39673279     0.35600
C3110       C  0.99169511  0.73034160  0.37136053    -0.26400
C3111       C  0.98876449  0.75473810  0.34755509    -0.15600
C3112       C  0.00043060  0.77433469  0.34873118     0.36700
N3113       N  0.99822768  0.79922561  0.32360960    -0.89900
H3114       H  0.02319150  0.78442746  0.37429111     0.17800
H3115       H  0.98290842  0.71513639  0.37182733     0.17800
N3116       N  0.00782372  0.70049545  0.42127180    -0.88900
H3117       H  0.99736575  0.79535760  0.28522798     0.35200
H3118       H  0.00778596  0.81151469  0.32839052     0.40300
H3119       H  0.00672278  0.68555416  0.39444659     0.39900
H3120       H  0.99906592  0.69800534  0.44750964     0.34800
C3121       C  0.94533265  0.77940118  0.49150228    -0.26900
C3122       C  0.93973526  0.75890571  0.46056117    -0.15000
C3123       C  0.93425665  0.73541487  0.48314414     0.35600
C3124       C  0.93532608  0.73245697  0.53525138    -0.26400
C3125       C  0.94132993  0.75259118  0.56600175    -0.15600
C3126       C  0.94615021  0.77656240  0.54384816     0.36700
N3127       N  0.95205850  0.79777270  0.57422398    -0.89900
H3128       H  0.94949326  0.79759320  0.47481682     0.17800
H3129       H  0.93107197  0.71435375  0.55207000     0.17800
N3130       N  0.92752712  0.71465484  0.45343895    -0.88900
H3131       H  0.95482862  0.81419291  0.55211279     0.35200
H3132       H  0.96229899  0.79128525  0.59048237     0.40300
H3133       H  0.91738205  0.72202600  0.43790956     0.39900
H3134       H  0.92439521  0.69854631  0.47585223     0.34800
C3135       C  0.93726871  0.77177204  0.04565898    -0.26900
C3136       C  0.94193236  0.74744029  0.06588209    -0.15000
C3137       C  0.94542759  0.72645705  0.03277231     0.35600
C3138       C  0.94415940  0.73025178  0.98081559    -0.26400
C3139       C  0.93950738  0.75464756  0.96080048    -0.15600
C3140       C  0.93591453  0.77548429  0.99386964     0.36700
N3141       N  0.93058119  0.80040766  0.97518884    -0.89900
H3142       H  0.93420623  0.78797294  0.07014864     0.17800
H3143       H  0.94723453  0.71416655  0.95604876     0.17800
N3144       N  0.95046156  0.70133814  0.05143455    -0.88900
H3145       H  0.93806176  0.81516705  0.98790292     0.35200
H3146       H  0.91977239  0.80398595  0.99047513     0.40300
H3147       H  0.96124186  0.69739631  0.03625453     0.39900
H3148       H  0.94283179  0.68684150  0.03857049     0.34800
C3149       C  0.95571397  0.89212660  0.18451282    -0.26900
C3150       C  0.94154379  0.90333540  0.17189739    -0.15000
C3151       C  0.92807766  0.88789026  0.17638037     0.35600
C3152       C  0.92909144  0.86166574  0.19313596    -0.26400
C3153       C  0.94326809  0.85055371  0.20653948    -0.15600
C3154       C  0.95673629  0.86597703  0.20204663     0.36700
N3155       N  0.97143035  0.85492097  0.21444421    -0.89900
H3156       H  0.96605887  0.90387420  0.18058850     0.17800
H3157       H  0.91868542  0.85002972  0.19651533     0.17800
N3158       N  0.91331840  0.89801977  0.16281767    -0.88900
H3159       H  0.98013226  0.86895271  0.20949718     0.35200
H3160       H  0.97357209  0.83967481  0.18902154     0.40300
H3161       H  0.91372305  0.90447461  0.12560411     0.39900
H3162       H  0.91087775  0.91417481  0.18576352     0.34800
C3163       C  0.88364748  0.76604495  0.21324446    -0.26900
C3164       C  0.89246179  0.74683778  0.18850029    -0.15000
C3165       C  0.88506871  0.73040016  0.15287385     0.35600
C3166       C  0.86914016  0.73177106  0.14604081    -0.26400
C3167       C  0.86016433  0.74979018  0.17286053    -0.15600
C3168       C  0.86762507  0.76768864  0.20563268     0.36700
N3169       N  0.85893952  0.78679983  0.23290878    -0.89900
H3170       H  0.88909644  0.77925991  0.23986579     0.17800
H3171       H  0.86371882  0.71828761  0.11981395     0.17800
N3172       N  0.89370906  0.71236223  0.12286627    -0.88900
H3173       H  0.86322216  0.80558063  0.22410172     0.35200
H3174       H  0.86073675  0.78352837  0.27116837     0.40300
H3175       H  0.89188949  0.71715577  0.08518481     0.39900
H3176       H  0.88945190  0.69327201  0.12900586     0.34800
C3177       C  0.82615167  0.14454425  0.82039972    -0.26900
C3178       C  0.81222696  0.15826257  0.82138602    -0.15000
C3179       C  0.79830369  0.14421343  0.81628201     0.35600
C3180       C  0.79869227  0.11652210  0.81013218    -0.26400
C3181       C  0.81271933  0.10297711  0.80895760    -0.15600
C3182       C  0.82651975  0.11719052  0.81425109     0.36700
N3183       N  0.84097120  0.10380335  0.81439604    -0.89900
H3184       H  0.83689144  0.15513444  0.82512980     0.17800
H3185       H  0.78809062  0.10556092  0.80538102     0.17800
N3186       N  0.78392284  0.15793330  0.81838836    -0.88900
H3187       H  0.84650168  0.10786531  0.84836153     0.35200
H3188       H  0.84764934  0.11166518  0.78548741     0.40300
H3189       H  0.78285000  0.16583618  0.85437485     0.39900
H3190       H  0.77480106  0.14468316  0.81368968     0.34800
C3191       C  0.81139131  0.13998723  0.36728561    -0.26900
C3192       C  0.81113771  0.15766639  0.32642561    -0.15000
C3193       C  0.81068884  0.14759205  0.27730825     0.35600
C3194       C  0.81085487  0.12033964  0.26988550    -0.26400
C3195       C  0.81142924  0.10274154  0.31053425    -0.15600
C3196       C  0.81159553  0.11250328  0.35981347     0.36700
N3197       N  0.81259905  0.09464014  0.40169390    -0.89900
H3198       H  0.81183181  0.14769512  0.40513917     0.17800
H3199       H  0.81086638  0.11280848  0.23186696     0.17800
N3200       N  0.81114337  0.16447987  0.23434194    -0.88900
H3201       H  0.81266288  0.10512818  0.43542655     0.35200
H3202       H  0.82315292  0.08497873  0.39958360     0.40300
H3203       H  0.82092158  0.17635722  0.23748376     0.39900
H3204       H  0.80142483  0.17649037  0.23441596     0.34800
C3205       C  0.81815582  0.27530532  0.58273240    -0.26900
C3206       C  0.80968761  0.25412627  0.56253347    -0.15000
C3207       C  0.80241427  0.23608101  0.59560832     0.35600
C3208       C  0.80400414  0.23931621  0.64726871    -0.26400
C3209       C  0.81257599  0.26028377  0.66737884    -0.15600
C3210       C  0.81970654  0.27856441  0.63477693     0.36700
N3211       N  0.82857850  0.30020954  0.65457327    -0.89900
H3212       H  0.82395549  0.28898777  0.55782290     0.17800
H3213       H  0.79806541  0.22569127  0.67196965     0.17800
N3214       N  0.79285496  0.21485887  0.57821895    -0.88900
H3215       H  0.83295488  0.31192484  0.62559988     0.35200
H3216       H  0.83800541  0.29218374  0.67343112     0.40300
H3217       H  0.79955280  0.20094357  0.55961102     0.39900
H3218       H  0.78463003  0.22252906  0.55364012     0.34800
C3219       C  0.80648334  0.28143340  0.13641693    -0.26900
C3220       C  0.81286302  0.26163838  0.16736061    -0.15000
C3221       C  0.81905321  0.23895653  0.14467793     0.35600
C3222       C  0.81841210  0.23613743  0.09260384    -0.26400
C3223       C  0.81180224  0.25559131  0.06175021    -0.15600
C3224       C  0.80584085  0.27866718  0.08401632     0.36700
N3225       N  0.79898644  0.29902841  0.05373219    -0.89900
H3226       H  0.80159588  0.29897319  0.15314633     0.17800
H3227       H  0.82338347  0.21855273  0.07625140     0.17800
N3228       N  0.82619241  0.21871129  0.17396325    -0.88900
H3229       H  0.79545322  0.31488339  0.07592835     0.35200
H3230       H  0.78908383  0.29107463  0.03741161     0.40300
H3231       H  0.83759426  0.21715158  0.16247431     0.39900
H3232       H  0.82071202  0.20089605  0.16518790     0.34800
C3233       C  0.99522894  0.27901753  0.62723805    -0.26900
C3234       C  0.98694656  0.25825432  0.60453505    -0.15000
C3235       C  0.99315661  0.23248270  0.60662128     0.35600
C3236       C  0.00701648  0.22796647  0.63199191    -0.26400
C3237       C  0.01522376  0.24862816  0.65522943    -0.15600
C3238       C  0.00916954  0.27452257  0.65233831     0.36700
N3239       N  0.01704113  0.29644938  0.67479710    -0.89900
H3240       H  0.99071580  0.29895529  0.62675765     0.17800
H3241       H  0.01150617  0.20801589  0.63237027     0.17800
N3242       N  0.98551490  0.21066046  0.58298578    -0.88900
H3243       H  0.00969237  0.30523513  0.70070434     0.35200
H3244       H  0.01940524  0.31032514  0.64673461     0.40300
H3245       H  0.98317587  0.19638637  0.61034207     0.39900
H3246       H  0.99300222  0.20237254  0.55691242     0.34800
C3247       C  0.95090575  0.14183549  0.56616426    -0.26900
C3248       C  0.93712885  0.15595561  0.56877125    -0.15000
C3249       C  0.92329082  0.14244923  0.57814430     0.35600
C3250       C  0.92344612  0.11495686  0.58418355    -0.26400
C3251       C  0.93711216  0.10056130  0.58042826    -0.15600
C3252       C  0.95102754  0.11423429  0.57147299     0.36700
N3253       N  0.96541318  0.10078095  0.56855972    -0.89900
H3254       H  0.96152229  0.15219430  0.55817193     0.17800
H3255       H  0.91278114  0.10464962  0.59168225     0.17800
N3256       N  0.90911595  0.15678237  0.58120858    -0.88900
H3257       H  0.96497257  0.08750265  0.53862026     0.35200
H3258       H  0.96708865  0.09016804  0.60177700     0.40300
H3259       H  0.90987043  0.16933902  0.61221461     0.39900
H3260       H  0.89995123  0.14389077  0.58796459     0.34800
C3261       C  0.88366930  0.22563603  0.42574218    -0.26900
C3262       C  0.89082673  0.24635785  0.45230888    -0.15000
C3263       C  0.88173204  0.26819030  0.46750279     0.35600
C3264       C  0.86594882  0.26829094  0.45691061    -0.26400
C3265       C  0.85895720  0.24701620  0.43192577    -0.15600
C3266       C  0.86798254  0.22578164  0.41559332     0.36700
N3267       N  0.86124303  0.20430098  0.38816112    -0.89900
H3268       H  0.89024175  0.20893189  0.41246132     0.17800
H3269       H  0.85901826  0.28465253  0.46982860     0.17800
N3270       N  0.88796731  0.29017362  0.49463645    -0.88900
H3271       H  0.86334984  0.18678657  0.40788166     0.35200
H3272       H  0.86673482  0.20302245  0.35350402     0.40300
H3273       H  0.89618827  0.29958658  0.47242937     0.39900
H3274       H  0.89310572  0.28315679  0.52749226     0.34800
C3275       C  0.00817120  0.22649886  0.12309270    -0.26900
C3276       C  0.01502662  0.24533314  0.15511915    -0.15000
C3277       C  0.00729558  0.26942993  0.16357516     0.35600
C3278       C  0.99327768  0.27432993  0.13916269    -0.26400
C3279       C  0.98642086  0.25557214  0.10714529    -0.15600
C3280       C  0.99400401  0.23129083  0.09916454     0.36700
N3281       N  0.98740852  0.21165504  0.06657926    -0.89900
H3282       H  0.01407659  0.20813068  0.11554026     0.17800
H3283       H  0.98739852  0.29272218  0.14673088     0.17800
N3284       N  0.01356761  0.28880012  0.19739107    -0.88900
H3285       H  0.99434289  0.19485274  0.06511515     0.35200
H3286       H  0.98716384  0.21958846  0.03037828     0.40300
H3287       H  0.01358921  0.28044971  0.23326631     0.39900
H3288       H  0.00655596  0.30549884  0.19907541     0.34800
C3289       C  0.93796323  0.11708877  0.11464198    -0.26900
C3290       C  0.93816607  0.09969106  0.07362701    -0.15000
C3291       C  0.93848138  0.10997315  0.02456653     0.35600
C3292       C  0.93794781  0.13733454  0.01751108    -0.26400
C3293       C  0.93740404  0.15470917  0.05853491    -0.15600
C3294       C  0.93761803  0.14456099  0.10760937     0.36700
N3295       N  0.93690264  0.16205104  0.14990237    -0.89900
H3296       H  0.93772643  0.10913485  0.15238519     0.17800
H3297       H  0.93787784  0.14511356  0.97962916     0.17800
N3298       N  0.93876220  0.09318805  0.98142047    -0.88900
H3299       H  0.93721458  0.15132719  0.18342799     0.35200
H3300       H  0.92629045  0.17157485  0.14874042     0.40300
H3301       H  0.92932878  0.08039734  0.98285903     0.39900
H3302       H  0.94878586  0.08197102  0.98276145     0.34800
C3303       C  0.93677691  0.27560889  0.80436125    -0.26900
C3304       C  0.94289005  0.25223604  0.82458208    -0.15000
C3305       C  0.94792653  0.23211457  0.79169366     0.35600
C3306       C  0.94615021  0.23544413  0.73980027    -0.26400
C3307       C  0.93980829  0.25861916  0.71974242    -0.15600
C3308       C  0.93511573  0.27899016  0.75241557     0.36700
N3309       N  0.92841553  0.30283777  0.73284977    -0.89900
H3310       H  0.93270703  0.29096035  0.82920872     0.17800
H3311       H  0.95018274  0.22013592  0.71476542     0.17800
N3312       N  0.95492009  0.20843683  0.81092791    -0.88900
H3313       H  0.92570502  0.31588403  0.76182385     0.35200
H3314       H  0.91806553  0.29765030  0.71554285     0.40300
H3315       H  0.96520849  0.21394896  0.82827052     0.39900
H3316       H  0.95779542  0.19558780  0.78180687     0.34800
C3317       C  0.94316680  0.22972555  0.29413532    -0.26900
C3318       C  0.93930250  0.25117751  0.32512636    -0.15000
C3319       C  0.93467309  0.27525231  0.30254807     0.35600
C3320       C  0.93433267  0.27730928  0.25007354    -0.26400
C3321       C  0.93816074  0.25583301  0.21929826    -0.15600
C3322       C  0.94274114  0.23179666  0.24169340     0.36700
N3323       N  0.94738555  0.20979250  0.21134214    -0.89900
H3324       H  0.94671551  0.21117846  0.31084639     0.17800
H3325       H  0.93088298  0.29583396  0.23301509     0.17800
N3326       N  0.93005061  0.29741450  0.33258197    -0.88900
H3327       H  0.95017150  0.19348783  0.23370916     0.35200
H3328       H  0.95743885  0.21527657  0.19275393     0.40300
H3329       H  0.91979203  0.29221368  0.35024571     0.39900
H3330       H  0.92758129  0.31381781  0.31007311     0.34800
C3331       C  0.86724067  0.26976098  0.95245157    -0.26900
C3332       C  0.86028012  0.25013692  0.92290673    -0.15000
C3333       C  0.86945670  0.23061573  0.90066071     0.35600
C3334       C  0.88520560  0.23003849  0.91045266    -0.26400
C3335       C  0.89218396  0.24854684  0.94268079    -0.15600
C3336       C  0.88309180  0.26906204  0.96276756     0.36700
N3337       N  0.88970812  0.28858797  0.99516359    -0.89900
H3338       H  0.86024731  0.28484691  0.96977182     0.17800
H3339       H  0.89194441  0.21460486  0.89316398     0.17800
N3340       N  0.86275047  0.21112860  0.86826072    -0.88900
H3341       H  0.88405080  0.28766894  0.02958869     0.35200
H3342       H  0.88767736  0.30721687  0.97945387     0.40300
H3343       H  0.86505394  0.19242721  0.88324303     0.39900
H3344       H  0.86811317  0.21246004  0.83337781     0.34800
C3345       C  0.80939725  0.62065121  0.51922432    -0.26900
C3346       C  0.81010539  0.60202970  0.55833835    -0.15000
C3347       C  0.80990292  0.61073762  0.60838470     0.35600
C3348       C  0.80997668  0.63805894  0.61806230    -0.26400
C3349       C  0.80986455  0.65673568  0.57881651    -0.15600
C3350       C  0.80913470  0.64777730  0.52889054     0.36700
N3351       N  0.80909015  0.66564057  0.48726018    -0.89900
H3352       H  0.80943714  0.61404026  0.48060038     0.17800
H3353       H  0.81042063  0.64486701  0.65652944     0.17800
N3354       N  0.81052651  0.59201259  0.64895806    -0.88900
H3355       H  0.81886727  0.67751816  0.48989826     0.35200
H3356       H  0.79936581  0.67757412  0.48952278     0.40300
H3357       H  0.80014788  0.58161647  0.64912033     0.39900
H3358       H  0.81118720  0.60181193  0.68336855     0.34800
C3359       C  0.79573256  0.36467277  0.43709131    -0.26900
C3360       C  0.80974822  0.35382412  0.42215558    -0.15000
C3361       C  0.82331381  0.36889257  0.42673044     0.35600
C3362       C  0.82260203  0.39448250  0.44598470    -0.26400
C3363       C  0.80862898  0.40533800  0.46150677    -0.15600
C3364       C  0.79501277  0.39032377  0.45698067     0.36700
N3365       N  0.78051944  0.40132627  0.47143351    -0.89900
H3366       H  0.78532221  0.35308938  0.43304372     0.17800
H3367       H  0.83309768  0.40590409  0.44925069     0.17800
N3368       N  0.83785702  0.35907482  0.41055386    -0.88900
H3369       H  0.77168871  0.38757289  0.46599120     0.35200
H3370       H  0.77823439  0.41721444  0.44743456     0.40300
H3371       H  0.83696715  0.35378858  0.37279660     0.39900
H3372       H  0.84053865  0.34222625  0.43150690     0.34800
C3373       C  0.80304183  0.61027487  0.09364848    -0.26900
C3374       C  0.81145749  0.60213808  0.05186064    -0.15000
C3375       C  0.81815912  0.62166809  0.02035600     0.35600
C3376       C  0.81712660  0.64852806  0.03311436    -0.26400
C3377       C  0.80958097  0.65626764  0.07674952    -0.15600
C3378       C  0.80212652  0.63708287  0.10636711     0.36700
N3379       N  0.79374443  0.64484178  0.14993221    -0.89900
H3380       H  0.79753697  0.59576916  0.11757890     0.17800
H3381       H  0.82286877  0.66321484  0.01015394     0.17800
N3382       N  0.82615226  0.61443278  0.97563683    -0.88900
H3383       H  0.79845858  0.63511038  0.18093108     0.35200
H3384       H  0.78242612  0.63834543  0.14562727     0.40300
H3385       H  0.83739705  0.62152424  0.97838344     0.39900
H3386       H  0.82087570  0.62387745  0.94528922     0.34800
C3387       C  0.81841851  0.48159389  0.79672980    -0.26900
C3388       C  0.81224019  0.50486433  0.81674494    -0.15000
C3389       C  0.80710251  0.52490227  0.78393229     0.35600
C3390       C  0.80837457  0.52149905  0.73214054    -0.26400
C3391       C  0.81452709  0.49825340  0.71198961    -0.15600
C3392       C  0.81965164  0.47814406  0.74479477     0.36700
N3393       N  0.82633900  0.45438078  0.72570067    -0.89900
H3394       H  0.82268867  0.46625025  0.82147982     0.17800
H3395       H  0.80401827  0.53685880  0.70759585     0.17800
N3396       N  0.80022489  0.54852018  0.80293743    -0.88900
H3397       H  0.81990765  0.43832341  0.73882587     0.35200
H3398       H  0.83742258  0.45276669  0.74039201     0.40300
H3399       H  0.78914512  0.54989020  0.78811595     0.39900
H3400       H  0.80655400  0.56471066  0.78986667     0.34800
C3401       C  0.80865090  0.47712765  0.24291577    -0.26900
C3402       C  0.81264562  0.49857446  0.21164631    -0.15000
C3403       C  0.81591920  0.52324016  0.23385666     0.35600
C3404       C  0.81520351  0.52593833  0.28598097    -0.26400
C3405       C  0.81130037  0.50450657  0.31734746    -0.15600
C3406       C  0.80788571  0.47985536  0.29514556     0.36700
N3407       N  0.80345905  0.45756206  0.32509219    -0.89900
H3408       H  0.80578624  0.45806170  0.22685322     0.17800
H3409       H  0.81798187  0.54508390  0.30183885     0.17800
N3410       N  0.82014284  0.54565830  0.20394779    -0.88900
H3411       H  0.81119988  0.44223558  0.31844439     0.35200
H3412       H  0.79261075  0.45127369  0.31320716     0.40300
H3413       H  0.83094406  0.55220893  0.21576999     0.39900
H3414       H  0.81226762  0.56077350  0.21066100     0.34800
C3415       C  0.79482948  0.39348989  0.94623484    -0.26900
C3416       C  0.80871014  0.40504592  0.96134653    -0.15000
C3417       C  0.82249619  0.39076726  0.95663987     0.35600
C3418       C  0.82215521  0.36534659  0.93659404    -0.26400
C3419       C  0.80836939  0.35402141  0.91986050    -0.15600
C3420       C  0.79451653  0.36810031  0.92500984     0.36700
N3421       N  0.78022682  0.35650834  0.90921709    -0.89900
H3422       H  0.78426665  0.40448253  0.95028562     0.17800
H3423       H  0.83281973  0.35459262  0.93300575     0.17800
N3424       N  0.83694416  0.40134691  0.97287553    -0.88900
H3425       H  0.77117317  0.36960199  0.91523496     0.35200
H3426       H  0.77817556  0.34002003  0.93197218     0.40300
H3427       H  0.83604804  0.40673795  0.01054961     0.39900
H3428       H  0.83946841  0.41818745  0.95166678     0.34800
C3429       C  0.99786963  0.47747516  0.78346188    -0.26900
C3430       C  0.98700348  0.49792318  0.78339720    -0.15000
C3431       C  0.99069817  0.52178887  0.75784460     0.35600
C3432       C  0.00479181  0.52442923  0.73347466    -0.26400
C3433       C  0.01570376  0.50404193  0.73355482    -0.15600
C3434       C  0.01205994  0.48021273  0.75952575     0.36700
N3435       N  0.02251324  0.45850819  0.76349750    -0.89900
H3436       H  0.99532938  0.45897115  0.80232360     0.17800
H3437       H  0.00724093  0.54295304  0.71457517     0.17800
N3438       N  0.98034555  0.54366010  0.75470816    -0.88900
H3439       H  0.03250880  0.46492798  0.78151912     0.35200
H3440       H  0.02507477  0.45166679  0.72757755     0.40300
H3441       H  0.97813142  0.55047710  0.79087692     0.39900
H3442       H  0.97016451  0.53740228  0.73761074     0.34800
C3443       C  0.92413341  0.61337836  0.82356249    -0.26900
C3444       C  0.93787066  0.59914443  0.82594644    -0.15000
C3445       C  0.95197213  0.61263522  0.82061513     0.35600
C3446       C  0.95198047  0.64016314  0.81202342    -0.26400
C3447       C  0.93816192  0.65414709  0.80818433    -0.15600
C3448       C  0.92416181  0.64059420  0.81409513     0.36700
N3449       N  0.90991944  0.65451763  0.81075596    -0.89900
H3450       H  0.91327311  0.60324683  0.82859837     0.17800
H3451       H  0.96273695  0.65059092  0.80691716     0.17800
N3452       N  0.96616590  0.59845101  0.82464599    -0.88900
H3453       H  0.90404598  0.65183831  0.84446658     0.35200
H3454       H  0.90338814  0.64594228  0.78210778     0.40300
H3455       H  0.96702232  0.59120020  0.86126177     0.39900
H3456       H  0.97547275  0.61124058  0.81946412     0.34800
C3457       C  0.92855429  0.39040515  0.93552467    -0.26900
C3458       C  0.94259567  0.40348503  0.92857463    -0.15000
C3459       C  0.95631910  0.39109958  0.94393470     0.35600
C3460       C  0.95575192  0.36581377  0.96496660    -0.26400
C3461       C  0.94179230  0.35223538  0.96994827    -0.15600
C3462       C  0.92800485  0.36475191  0.95579336     0.36700
N3463       N  0.91353981  0.35152287  0.96258500    -0.89900
H3464       H  0.91801828  0.40007454  0.92427163     0.17800
H3465       H  0.96635764  0.35645848  0.97647561     0.17800
N3466       N  0.97093346  0.40391242  0.93971002    -0.88900
H3467       H  0.90453260  0.36341409  0.94996115     0.35200
H3468       H  0.91193033  0.34889088  0.00107839     0.40300
H3469       H  0.97043085  0.42209498  0.95823656     0.39900
H3470       H  0.97325587  0.40727376  0.90186626     0.34800
C3471       C  0.88573994  0.52580285  0.97485468    -0.26900
C3472       C  0.89258801  0.50697305  0.94344009    -0.15000
C3473       C  0.88331123  0.48676609  0.92254914     0.35600
C3474       C  0.86734084  0.48709671  0.93031686    -0.26400
C3475       C  0.86055893  0.50724834  0.95871280    -0.15600
C3476       C  0.86994272  0.52603312  0.98268408     0.36700
N3477       N  0.86340535  0.54551094  0.01509956    -0.89900
H3478       H  0.89263996  0.54083952  0.99315043     0.17800
H3479       H  0.86018813  0.47233072  0.91224512     0.17800
N3480       N  0.88990660  0.46644353  0.89226744    -0.88900
H3481       H  0.86627794  0.56423501  0.00123666     0.35200
H3482       H  0.86841092  0.54344510  0.05054113     0.40300
H3483       H  0.88472811  0.46711702  0.85690447     0.39900
H3484       H  0.88726866  0.44817001  0.90857973     0.34800
C3485       C  0.99133889  0.52325281  0.27412824    -0.26900
C3486       C  0.98737411  0.49705092  0.28679263    -0.15000
C3487       C  0.99772368  0.47663350  0.27461493     0.35600
C3488       C  0.01137853  0.48264040  0.24941090    -0.26400
C3489       C  0.01522971  0.50877429  0.23604192    -0.15600
C3490       C  0.00499677  0.52926082  0.24890783     0.36700
N3491       N  0.00825978  0.55624381  0.23617043    -0.89900
H3492       H  0.98358103  0.53933951  0.28239459     0.17800
H3493       H  0.01916795  0.46657612  0.24130560     0.17800
N3494       N  0.99451857  0.44967610  0.28764658    -0.88900
H3495       H  0.00846981  0.56729716  0.26924766     0.35200
H3496       H  0.99929471  0.56329452  0.21379234     0.40300
H3497       H  0.00346128  0.44279527  0.31031067     0.39900
H3498       H  0.99441033  0.43850084  0.25471545     0.34800
C3499       C  0.93589596  0.63549894  0.26895976    -0.26900
C3500       C  0.93903992  0.65400074  0.30711576    -0.15000
C3501       C  0.94324867  0.64489115  0.35504974     0.35600
C3502       C  0.94368098  0.61764296  0.36452093    -0.26400
C3503       C  0.94020177  0.59928168  0.32673751    -0.15600
C3504       C  0.93646873  0.60816067  0.27830310     0.36700
N3505       N  0.93280058  0.58948403  0.23944529    -0.89900
H3506       H  0.93283162  0.64239748  0.23179780     0.17800
H3507       H  0.94648250  0.61075876  0.40193667     0.17800
N3508       N  0.94651950  0.66315520  0.39467004    -0.88900
H3509       H  0.93032282  0.59930667  0.20588732     0.35200
H3510       H  0.92278204  0.57953322  0.24991939     0.40300
H3511       H  0.95762137  0.65946762  0.40772058     0.39900
H3512       H  0.93890350  0.65937117  0.42399147     0.34800
C3513       C  0.93709987  0.52258847  0.59682252    -0.26900
C3514       C  0.94116944  0.50108726  0.56618481    -0.15000
C3515       C  0.94411691  0.47634388  0.58911658     0.35600
C3516       C  0.94316993  0.47395758  0.64122095    -0.26400
C3517       C  0.93918731  0.49556480  0.67186217    -0.15600
C3518       C  0.93602660  0.52009536  0.64889031     0.36700
N3519       N  0.93170923  0.54266257  0.67793735    -0.89900
H3520       H  0.93445699  0.54164716  0.58033430     0.17800
H3521       H  0.94578731  0.45490116  0.65773761     0.17800
N3522       N  0.94839686  0.45338393  0.56110374    -0.88900
H3523       H  0.92098694  0.54908732  0.66534265     0.35200
H3524       H  0.93966127  0.55778077  0.67127826     0.40300
H3525       H  0.95801538  0.45795505  0.53946837     0.39900
H3526       H  0.93930642  0.44787435  0.53772003     0.34800
C3527       C  0.94752617  0.52325228  0.09774349    -0.26900
C3528       C  0.94187858  0.50311458  0.06636076    -0.15000
C3529       C  0.93533874  0.48025332  0.08823273     0.35600
C3530       C  0.93478379  0.47782530  0.14044249    -0.26400
C3531       C  0.94034498  0.49799125  0.17168553    -0.15600
C3532       C  0.94693938  0.52087496  0.15013375     0.36700
N3533       N  0.95335277  0.54129970  0.18137476    -0.89900
H3534       H  0.95251435  0.54090363  0.08136011     0.17800
H3535       H  0.92977626  0.46013299  0.15666270     0.17800
N3536       N  0.92873945  0.45981699  0.05778335    -0.88900
H3537       H  0.95753855  0.55693733  0.15961704     0.35200
H3538       H  0.96279464  0.53328141  0.20018046     0.40300
H3539       H  0.91719515  0.45777198  0.06747913     0.39900
H3540       H  0.93428564  0.44204682  0.06618952     0.34800
C3541       C  0.95463645  0.38994521  0.43355047    -0.26900
C3542       C  0.94063997  0.40247948  0.42356319    -0.15000
C3543       C  0.92676078  0.38897238  0.43347880     0.35600
C3544       C  0.92718050  0.36327891  0.45281735    -0.26400
C3545       C  0.94117841  0.35104254  0.46399036    -0.15600
C3546       C  0.95506257  0.36441082  0.45410570     0.36700
N3547       N  0.96951118  0.35188888  0.46439732    -0.89900
H3548       H  0.96528167  0.40023424  0.42568310     0.17800
H3549       H  0.91648999  0.35305081  0.46036472     0.17800
N3550       N  0.91211792  0.40058631  0.42337809    -0.88900
H3551       H  0.97861464  0.36450197  0.45532067     0.35200
H3552       H  0.97037418  0.33547377  0.44080610     0.40300
H3553       H  0.91172563  0.40630091  0.38572856     0.39900
H3554       H  0.91089705  0.41734626  0.44583103     0.34800
C3555       C  0.88536000  0.53209001  0.46230617    -0.26900
C3556       C  0.89243130  0.51012071  0.43998143    -0.15000
C3557       C  0.88323528  0.48784627  0.42801365     0.35600
C3558       C  0.86729881  0.48849569  0.43670977    -0.26400
C3559       C  0.86029093  0.51105337  0.45695171    -0.15600
C3560       C  0.86958814  0.53271185  0.47101052     0.36700
N3561       N  0.86308178  0.55549798  0.49459537    -0.89900
H3562       H  0.89206562  0.54923239  0.47321344     0.17800
H3563       H  0.86033286  0.47163216  0.42594088     0.17800
N3564       N  0.88988683  0.46469092  0.40639390    -0.88900
H3565       H  0.86556123  0.57206031  0.47249087     0.35200
H3566       H  0.86842540  0.55804845  0.52939326     0.40300
H3567       H  0.88455493  0.46124902  0.37185874     0.39900
H3568       H  0.88746439  0.44863593  0.42984961     0.34800
C3569       C  0.50284577  0.23236056  0.90067023    -0.26900
C3570       C  0.51347607  0.25329179  0.90410653    -0.15000
C3571       C  0.50922200  0.27822895  0.88426340     0.35600
C3572       C  0.49479765  0.28153474  0.86133619    -0.26400
C3573       C  0.48426560  0.26050341  0.85725393    -0.15600
C3574       C  0.48832797  0.23566444  0.87821756     0.36700
N3575       N  0.47764481  0.21391269  0.87776488    -0.89900
H3576       H  0.50585857  0.21312891  0.91562850     0.17800
H3577       H  0.49186885  0.30082935  0.84643821     0.17800
N3578       N  0.51959783  0.30024591  0.88604768    -0.88900
H3579       H  0.46855892  0.21889591  0.90134090     0.35200
H3580       H  0.48259693  0.19689878  0.89305967     0.40300
H3581       H  0.51426389  0.31565521  0.90529378     0.39900
H3582       H  0.52162961  0.30658066  0.84934303     0.34800
C3583       C  0.50665286  0.23120554  0.36566008    -0.26900
C3584       C  0.51352161  0.25007133  0.39752850    -0.15000
C3585       C  0.50601537  0.27451271  0.40408974     0.35600
C3586       C  0.49201592  0.27946154  0.37967036    -0.26400
C3587       C  0.48507433  0.26059913  0.34808872    -0.15600
C3588       C  0.49268741  0.23621161  0.34060648     0.36700
N3589       N  0.48631727  0.21658031  0.30752879    -0.89900
H3590       H  0.51242913  0.21262590  0.35893353     0.17800
H3591       H  0.48638445  0.29815192  0.38667237     0.17800
N3592       N  0.51244920  0.29449095  0.43582159    -0.88900
H3593       H  0.49317111  0.19966485  0.30685028     0.35200
H3594       H  0.48647017  0.22444801  0.27127165     0.40300
H3595       H  0.50452339  0.29870207  0.46395125     0.39900
H3596       H  0.51389251  0.31155812  0.41418524     0.34800
C3597       C  0.55951176  0.27874349  0.71349480    -0.26900
C3598       C  0.55960806  0.25637618  0.68207380    -0.15000
C3599       C  0.56025456  0.23094344  0.70432556     0.35600
C3600       C  0.56112764  0.22868625  0.75675175    -0.26400
C3601       C  0.56103950  0.25108633  0.78796026    -0.15600
C3602       C  0.56011341  0.27637690  0.76572278     0.36700
N3603       N  0.55943156  0.29980920  0.79578576    -0.89900
H3604       H  0.55902039  0.29846985  0.69764320     0.17800
H3605       H  0.56168786  0.20913391  0.77331567     0.17800
N3606       N  0.56003242  0.20743770  0.67403142    -0.88900
H3607       H  0.54925376  0.30972250  0.78722207     0.35200
H3608       H  0.56860720  0.31208995  0.78589812     0.40300
H3609       H  0.54921919  0.20619217  0.65715648     0.39900
H3610       H  0.56116602  0.19049094  0.69623933     0.34800
C3611       C  0.56590153  0.27817833  0.21351381    -0.26900
C3612       C  0.56052055  0.25784123  0.18205929    -0.15000
C3613       C  0.55592886  0.23362273  0.20351977     0.35600
C3614       C  0.55668855  0.23026156  0.25554107    -0.26400
C3615       C  0.56204264  0.25059323  0.28717807    -0.15600
C3616       C  0.56695277  0.27473942  0.26559376     0.36700
N3617       N  0.57318407  0.29557079  0.29625018    -0.89900
H3618       H  0.56979993  0.29666749  0.19729318     0.17800
H3619       H  0.55274517  0.21165602  0.27116092     0.17800
N3620       N  0.55022955  0.21249207  0.17286341    -0.88900
H3621       H  0.57597174  0.31212552  0.27452819     0.35200
H3622       H  0.58347257  0.28869567  0.31159652     0.40300
H3623       H  0.53915120  0.20774841  0.18476495     0.39900
H3624       H  0.55717421  0.19595053  0.17871509     0.34800
C3625       C  0.74303965  0.23135513  0.75979736    -0.26900
C3626       C  0.73654971  0.24967609  0.72617137    -0.15000
C3627       C  0.74421141  0.27395579  0.71787906     0.35600
C3628       C  0.75797837  0.27937577  0.74357751    -0.26400
C3629       C  0.76450794  0.26104045  0.77721284    -0.15600
C3630       C  0.75678507  0.23676670  0.78560560     0.36700
N3631       N  0.76281947  0.21767336  0.82041738    -0.89900
H3632       H  0.73707690  0.21295794  0.76745004     0.17800
H3633       H  0.76387750  0.29782767  0.73592063     0.17800
N3634       N  0.73810096  0.29296482  0.68305533    -0.88900
H3635       H  0.75592188  0.20072434  0.82151291     0.35200
H3636       H  0.76239500  0.22607694  0.85615109     0.40300
H3637       H  0.73839848  0.28444336  0.64740533     0.39900
H3638       H  0.74503546  0.30986026  0.68157210     0.34800
C3639       C  0.63431434  0.24119446  0.55246371    -0.26900
C3640       C  0.64128297  0.26316090  0.57557755    -0.15000
C3641       C  0.63207827  0.28459572  0.59018715     0.35600
C3642       C  0.61635374  0.28417484  0.58041682    -0.26400
C3643       C  0.60924757  0.26268916  0.55601791    -0.15600
C3644       C  0.61841194  0.24082593  0.54232539     0.36700
N3645       N  0.61176603  0.21845258  0.51748177    -0.89900
H3646       H  0.64129060  0.22464017  0.54076053     0.17800
H3647       H  0.60970700  0.30108362  0.59229162     0.17800
N3648       N  0.63864816  0.30690706  0.61560488    -0.88900
H3649       H  0.61395783  0.20164993  0.53921971     0.35200
H3650       H  0.61728538  0.21611846  0.48307823     0.40300
H3651       H  0.63319444  0.30888758  0.65020050     0.39900
H3652       H  0.63636089  0.32386129  0.59439038     0.34800
C3653       C  0.73997002  0.27624071  0.24430358    -0.26900
C3654       C  0.73574729  0.25033926  0.23055463    -0.15000
C3655       C  0.74597725  0.22951673  0.24210032     0.35600
C3656       C  0.75996249  0.23494571  0.26635229    -0.26400
C3657       C  0.76421378  0.26085868  0.27987344    -0.15600
C3658       C  0.75391105  0.28164946  0.26882563     0.36700
N3659       N  0.75742685  0.30838971  0.28253154    -0.89900
H3660       H  0.73225189  0.29256386  0.23708653     0.17800
H3661       H  0.76767886  0.21862525  0.27361090     0.17800
N3662       N  0.74233107  0.20271296  0.22925993    -0.88900
H3663       H  0.74873700  0.31520989  0.30602142     0.35200
H3664       H  0.75735314  0.31993953  0.24998847     0.40300
H3665       H  0.74236362  0.19146656  0.26218471     0.39900
H3666       H  0.75098001  0.19555257  0.20598025     0.34800
C3667       C  0.69444295  0.27211919  0.85785301    -0.26900
C3668       C  0.68955321  0.24764635  0.83871181    -0.15000
C3669       C  0.68645810  0.22678825  0.87254236     0.35600
C3670       C  0.68801008  0.23095658  0.92435179    -0.26400
C3671       C  0.69268320  0.25561292  0.94358665    -0.15600
C3672       C  0.69624689  0.27626915  0.90954091     0.36700
N3673       N  0.70179220  0.30139723  0.92732203    -0.89900
H3674       H  0.69732635  0.28800830  0.83222256     0.17800
H3675       H  0.68508334  0.21493160  0.94963952     0.17800
N3676       N  0.68140909  0.20148511  0.85471712    -0.88900
H3677       H  0.70361843  0.31448430  0.89752680     0.35200
H3678       H  0.71248728  0.29818441  0.94400215     0.40300
H3679       H  0.67073525  0.19736327  0.87066551     0.39900
H3680       H  0.68915400  0.18722334  0.86748709     0.34800
C3681       C  0.69337016  0.27632029  0.35845529    -0.26900
C3682       C  0.68672005  0.25328498  0.33860609    -0.15000
C3683       C  0.68132876  0.23344730  0.37149034     0.35600
C3684       C  0.68311360  0.23672802  0.42337966    -0.26400
C3685       C  0.68999395  0.25955176  0.44342756    -0.15600
C3686       C  0.69517538  0.27963951  0.41042170     0.36700
N3687       N  0.70248387  0.30310782  0.42954989    -0.89900
H3688       H  0.69776545  0.29133886  0.33322002     0.17800
H3689       H  0.67871937  0.22160238  0.44836574     0.17800
N3690       N  0.67394027  0.21012284  0.35208007    -0.88900
H3691       H  0.70545137  0.31594003  0.40034757     0.35200
H3692       H  0.71274193  0.29734036  0.44666119     0.40300
H3693       H  0.66383706  0.21611176  0.33426305     0.39900
H3694       H  0.67069581  0.19744080  0.38119574     0.34800
C3695       C  0.63532873  0.28125580  0.03618841    -0.26900
C3696       C  0.64219353  0.26137044  0.06555002    -0.15000
C3697       C  0.63273156  0.24073050  0.08446354     0.35600
C3698       C  0.61682215  0.24133237  0.07567518    -0.26400
C3699       C  0.61006191  0.26211702  0.04859640    -0.15600
C3700       C  0.61956653  0.28195031  0.02785650     0.36700
N3701       N  0.61359103  0.30294064  0.99741337    -0.89900
H3702       H  0.64224312  0.29685391  0.01977910     0.17800
H3703       H  0.60963702  0.22595828  0.09160086     0.17800
N3704       N  0.63875468  0.21935886  0.11370405    -0.88900
H3705       H  0.60652055  0.31488715  0.01918142     0.35200
H3706       H  0.60715210  0.29469090  0.96820745     0.40300
H3707       H  0.64439515  0.22716631  0.14500791     0.39900
H3708       H  0.64656435  0.20885909  0.09188424     0.34800
C3709       C  0.51098579  0.98630837  0.75399617    -0.26900
C3710       C  0.51389254  0.01166559  0.73399362    -0.15000
C3711       C  0.50232579  0.03114232  0.73888112     0.35600
C3712       C  0.48846728  0.02477184  0.76250206    -0.26400
C3713       C  0.48553512  0.99936215  0.78221486    -0.15600
C3714       C  0.49713450  0.97994333  0.77760383     0.36700
N3715       N  0.49543192  0.95364793  0.79696861    -0.89900
H3716       H  0.51967975  0.97109508  0.75204801     0.17800
H3717       H  0.47976377  0.03996774  0.76450103     0.17800
N3718       N  0.50406965  0.05749404  0.71983885    -0.88900
H3719       H  0.48674461  0.94390535  0.77719293     0.35200
H3720       H  0.49256928  0.95474291  0.83490767     0.40300
H3721       H  0.50677410  0.05652236  0.68176333     0.39900
H3722       H  0.51288875  0.06701252  0.73939202     0.34800
C3723       C  0.57275226  0.14427082  0.55285853    -0.26900
C3724       C  0.55880382  0.15697137  0.54292569    -0.15000
C3725       C  0.54496729  0.14440898  0.55615067     0.35600
C3726       C  0.54528056  0.11932002  0.57875217    -0.26400
C3727       C  0.55921033  0.10624572  0.58744735    -0.15600
C3728       C  0.57310112  0.11897234  0.57421397     0.36700
N3729       N  0.58772828  0.10705093  0.58320629    -0.89900
H3730       H  0.58346048  0.15388646  0.54308264     0.17800
H3731       H  0.53456446  0.10989191  0.58903234     0.17800
N3732       N  0.53060876  0.15737299  0.54790362    -0.88900
H3733       H  0.58848934  0.08974903  0.56203146     0.35200
H3734       H  0.58855859  0.10221027  0.62121918     0.40300
H3735       H  0.52512468  0.15925714  0.58247083     0.39900
H3736       H  0.52384009  0.14519956  0.52512366     0.34800
C3737       C  0.50531974  0.03067307  0.25307343    -0.26900
C3738       C  0.51321677  0.01023796  0.22848755    -0.15000
C3739       C  0.50694102  0.98438639  0.23000234     0.35600
C3740       C  0.49321911  0.97965053  0.25630548    -0.26400
C3741       C  0.48535072  0.00006517  0.28112563    -0.15600
C3742       C  0.49164224  0.02593555  0.27957163     0.36700
N3743       N  0.48423649  0.04739574  0.30506890    -0.89900
H3744       H  0.51011651  0.05046757  0.25322891     0.17800
H3745       H  0.48843875  0.95984648  0.25615333     0.17800
N3746       N  0.51444170  0.96295342  0.20473957    -0.88900
H3747       H  0.49015101  0.06517298  0.29941114     0.35200
H3748       H  0.48477915  0.04341180  0.34349154     0.40300
H3749       H  0.51406836  0.96698690  0.16631679     0.39900
H3750       H  0.50849027  0.94518616  0.21008722     0.34800
C3751       C  0.55931645  0.98358784  0.91597023    -0.26900
C3752       C  0.56050529  0.00582128  0.94752414    -0.15000
C3753       C  0.56330990  0.03083806  0.92555222     0.35600
C3754       C  0.56443865  0.03313152  0.87333259    -0.26400
C3755       C  0.56288240  0.01098192  0.84188411    -0.15600
C3756       C  0.56049398  0.98589261  0.86381603     0.36700
N3757       N  0.55879803  0.96270453  0.83344859    -0.89900
H3758       H  0.55742445  0.96406800  0.93165025     0.17800
H3759       H  0.56637443  0.05257418  0.85733544     0.17800
N3760       N  0.56510370  0.05404969  0.95578749    -0.88900
H3761       H  0.54807564  0.95428948  0.84083592     0.35200
H3762       H  0.56721115  0.94913274  0.84419962     0.40300
H3763       H  0.55681486  0.06778617  0.94476608     0.39900
H3764       H  0.57590199  0.06222012  0.94859105     0.34800
C3765       C  0.55860755  0.03420836  0.37373747    -0.26900
C3766       C  0.56026602  0.01195375  0.34259344    -0.15000
C3767       C  0.56059329  0.98659270  0.36481024     0.35600
C3768       C  0.55883729  0.98400761  0.41670062    -0.26400
C3769       C  0.55695146  0.00622070  0.44779742    -0.15600
C3770       C  0.55699250  0.03162488  0.42573896     0.36700
N3771       N  0.55534494  0.05493801  0.45567646    -0.89900
H3772       H  0.55840333  0.05392024  0.35773859     0.17800
H3773       H  0.55926163  0.96429942  0.43266452     0.17800
N3774       N  0.56254153  0.96326663  0.33510294    -0.88900
H3775       H  0.54574266  0.06528335  0.44285372     0.35200
H3776       H  0.56499903  0.06690031  0.45017267     0.40300
H3777       H  0.55305526  0.95092986  0.34071643     0.39900
H3778       H  0.57228730  0.95334972  0.34801366     0.34800
C3779       C  0.57245756  0.14278367  0.04555501    -0.26900
C3780       C  0.55888894  0.15750382  0.04385571    -0.15000
C3781       C  0.54535849  0.14673047  0.06391654     0.35600
C3782       C  0.54558161  0.12144488  0.08563511    -0.26400
C3783       C  0.55909327  0.10640359  0.08679968    -0.15600
C3784       C  0.57263735  0.11722248  0.06624985     0.36700
N3785       N  0.58666103  0.10258515  0.06719278    -0.89900
H3786       H  0.58291144  0.15100726  0.03006865     0.17800
H3787       H  0.53508321  0.11346594  0.10121791     0.17800
N3788       N  0.53145311  0.16169347  0.06327726    -0.88900
H3789       H  0.59484564  0.11369573  0.08675093     0.35200
H3790       H  0.59044088  0.10045628  0.03029421     0.40300
H3791       H  0.52779354  0.16398061  0.10027066     0.39900
H3792       H  0.52313967  0.15070309  0.04406122     0.34800
C3793       C  0.75737402  0.02966793  0.86169647    -0.26900
C3794       C  0.76056421  0.00436740  0.84225455    -0.15000
C3795       C  0.74921322  0.98448823  0.84639541     0.35600
C3796       C  0.73541216  0.98981370  0.87115286    -0.26400
C3797       C  0.73240178  0.01479272  0.89188038    -0.15600
C3798       C  0.74346859  0.03507221  0.88649753     0.36700
N3799       N  0.74073566  0.06086007  0.90717248    -0.89900
H3800       H  0.76602719  0.04504869  0.85951560     0.17800
H3801       H  0.72683749  0.97427619  0.87328963     0.17800
N3802       N  0.75156394  0.95878597  0.82530602    -0.88900
H3803       H  0.74997725  0.07351318  0.89995563     0.35200
H3804       H  0.74010802  0.05878980  0.94609973     0.40300
H3805       H  0.74277269  0.95514942  0.79945901     0.39900
H3806       H  0.75063913  0.94481509  0.85409011     0.34800
C3807       C  0.68926215  0.10881858  0.09214436    -0.26900
C3808       C  0.69086422  0.10657300  0.03999075    -0.15000
C3809       C  0.69288364  0.12968984  0.01094772     0.35600
C3810       C  0.69302207  0.15449999  0.03439982    -0.26400
C3811       C  0.69146000  0.15660166  0.08650364    -0.15600
C3812       C  0.68965176  0.13356845  0.11558053     0.36700
N3813       N  0.68767510  0.13530148  0.16873070    -0.89900
H3814       H  0.68767155  0.09127237  0.11494325     0.17800
H3815       H  0.69440168  0.17219153  0.01180498     0.17800
N3816       N  0.69434051  0.12817621  0.95758969    -0.88900
H3817       H  0.69631910  0.12420661  0.18590541     0.35200
H3818       H  0.67714447  0.12661486  0.17775752     0.40300
H3819       H  0.70475312  0.13698895  0.94760273     0.39900
H3820       H  0.68550812  0.13926044  0.94144232     0.34800
C3821       C  0.63373025  0.98057528  0.09128398    -0.26900
C3822       C  0.64053850  0.00101539  0.06317799    -0.15000
C3823       C  0.63119467  0.02236673  0.04700608     0.35600
C3824       C  0.61538307  0.02188737  0.05690312    -0.26400
C3825       C  0.60861705  0.00049643  0.08228049    -0.15600
C3826       C  0.61804577  0.97997046  0.10062565     0.36700
N3827       N  0.61208784  0.95834739  0.12955620    -0.89900
H3828       H  0.64063202  0.96449915  0.10584186     0.17800
H3829       H  0.60825086  0.03781433  0.04293515     0.17800
N3830       N  0.63721251  0.04427683  0.01915710    -0.88900
H3831       H  0.60480124  0.94693568  0.10716081     0.35200
H3832       H  0.60590398  0.96596143  0.15971521     0.40300
H3833       H  0.64255006  0.03706815  0.98698176     0.39900
H3834       H  0.64528648  0.05417150  0.04132487     0.34800
C3835       C  0.74002795  0.98610582  0.39755362    -0.26900
C3836       C  0.73531344  0.01248553  0.40405969    -0.15000
C3837       C  0.74513408  0.03282900  0.38573794     0.35600
C3838       C  0.75899621  0.02637312  0.36233617    -0.26400
C3839       C  0.76369596  0.99999915  0.35566627    -0.15600
C3840       C  0.75387410  0.97964109  0.37402280     0.36700
N3841       N  0.75742656  0.95210419  0.36947349    -0.89900
H3842       H  0.73274961  0.97001620  0.41014974     0.17800
H3843       H  0.76624670  0.04247430  0.34964441     0.17800
N3844       N  0.74154646  0.06035584  0.39016031    -0.88900
H3845       H  0.76731355  0.94798059  0.39020609     0.35200
H3846       H  0.75915289  0.94765000  0.33168712     0.40300
H3847       H  0.73958477  0.06476088  0.42784430     0.39900
H3848       H  0.73178556  0.06449021  0.36879715     0.34800
C3849       C  0.67731011  0.02358099  0.70614282    -0.26900
C3850       C  0.68513647  0.00183598  0.68621844    -0.15000
C3851       C  0.69148955  0.98294772  0.71919761     0.35600
C3852       C  0.69016366  0.98638402  0.77116153    -0.26400
C3853       C  0.68255314  0.00840373  0.79116861    -0.15600
C3854       C  0.67581509  0.02686083  0.75805338     0.36700
N3855       N  0.66724722  0.04879466  0.77687888    -0.89900
H3856       H  0.67203364  0.03789969  0.68129644     0.17800
H3857       H  0.69563768  0.97221809  0.79589518     0.17800
N3858       N  0.69972529  0.96068028  0.70017408    -0.88900
H3859       H  0.65612543  0.04756743  0.76231038     0.35200
H3860       H  0.67226467  0.06620955  0.76339548     0.40300
H3861       H  0.69445219  0.94347519  0.71359085     0.39900
H3862       H  0.71086751  0.96137048  0.71468965     0.34800
C3863       C  0.68317742  0.98817840  0.21687591    -0.26900
C3864       C  0.68950126  0.00824417  0.18642687    -0.15000
C3865       C  0.69478565  0.03176389  0.20925395     0.35600
C3866       C  0.69367584  0.03449461  0.26159057    -0.26400
C3867       C  0.68752221  0.01420769  0.29183596    -0.15600
C3868       C  0.68202247  0.99093450  0.26893134     0.36700
N3869       N  0.67508545  0.97028039  0.29836640    -0.89900
H3870       H  0.67872686  0.97025693  0.19995413     0.17800
H3871       H  0.69806747  0.05234551  0.27897181     0.17800
N3872       N  0.70142250  0.05261652  0.17965033    -0.88900
H3873       H  0.67183551  0.95431294  0.27580497     0.35200
H3874       H  0.66501259  0.97787565  0.31369814     0.40300
H3875       H  0.71161327  0.04542922  0.16445129     0.39900
H3876       H  0.70442946  0.06874494  0.20216207     0.34800
C3877       C  0.67671687  0.11672857  0.55752295    -0.26900
C3878       C  0.69055372  0.10364649  0.54804726    -0.15000
C3879       C  0.70458159  0.11667917  0.55772430     0.35600
C3880       C  0.70446959  0.14276114  0.57577502    -0.26400
C3881       C  0.69064397  0.15617230  0.58382084    -0.15600
C3882       C  0.67661200  0.14287796  0.57471662     0.36700
N3883       N  0.66211304  0.15513852  0.58381572    -0.89900
H3884       H  0.66590429  0.10677884  0.55035259     0.17800
H3885       H  0.71523913  0.15274932  0.58338289     0.17800
N3886       N  0.71886724  0.10324885  0.54982600    -0.88900
H3887       H  0.66104021  0.17157394  0.56028591     0.35200
H3888       H  0.66184051  0.16147540  0.62106905     0.40300
H3889       H  0.71933690  0.08738728  0.57498799     0.39900
H3890       H  0.72812116  0.11563526  0.55851818     0.34800
C3891       C  0.62871572  0.98433083  0.51827037    -0.26900
C3892       C  0.63836468  0.99990152  0.54835241    -0.15000
C3893       C  0.63178882  0.01611889  0.58597195     0.35600
C3894       C  0.61583041  0.01584831  0.59274716    -0.26400
C3895       C  0.60626468  0.99937999  0.56403558    -0.15600
C3896       C  0.61280067  0.98415684  0.52528812     0.36700
N3897       N  0.60331437  0.96869289  0.49248942    -0.89900
H3898       H  0.63359706  0.97198712  0.48928036     0.17800
H3899       H  0.61096358  0.02779409  0.62233139     0.17800
N3900       N  0.64080978  0.03220921  0.61944352    -0.88900
H3901       H  0.60681776  0.94897464  0.49493384     0.35200
H3902       H  0.60515107  0.97519258  0.45577429     0.40300
H3903       H  0.65250986  0.03050826  0.61286599     0.39900
H3904       H  0.63904505  0.02515316  0.65582992     0.34800
C3905       C  0.48929315  0.73648758  0.63316783    -0.26900
C3906       C  0.48542682  0.76231767  0.61794978    -0.15000
C3907       C  0.49574701  0.78318524  0.62925392     0.35600
C3908       C  0.50949260  0.77772466  0.65499325    -0.26400
C3909       C  0.51347608  0.75184499  0.66939223    -0.15600
C3910       C  0.50306613  0.73109268  0.65857168     0.36700
N3911       N  0.50631773  0.70443266  0.67340446    -0.89900
H3912       H  0.48143453  0.72022988  0.62627968     0.17800
H3913       H  0.51741624  0.79383802  0.66215383     0.17800
N3914       N  0.49237750  0.80988739  0.61431121    -0.88900
H3915       H  0.50630016  0.69262775  0.64127000     0.35200
H3916       H  0.49745936  0.69787709  0.69665877     0.40300
H3917       H  0.49245395  0.81047836  0.57515166     0.39900
H3918       H  0.50096499  0.82289236  0.62641982     0.34800
C3919       C  0.57633585  0.86798269  0.69670370    -0.26900
C3920       C  0.56252035  0.85492749  0.70708490    -0.15000
C3921       C  0.54881232  0.86966546  0.70978939     0.35600
C3922       C  0.54919379  0.89704689  0.70119556    -0.26400
C3923       C  0.56301143  0.90992247  0.68949665    -0.15600
C3924       C  0.57668432  0.89522214  0.68762335     0.36700
N3925       N  0.59101961  0.90802364  0.67740945    -0.89900
H3926       H  0.58696663  0.85695905  0.69586272     0.17800
H3927       H  0.53861585  0.90818977  0.70250516     0.17800
N3928       N  0.53450426  0.85750292  0.72268066    -0.88900
H3929       H  0.59578615  0.89919473  0.64571653     0.35200
H3930       H  0.59837516  0.90459118  0.70773005     0.40300
H3931       H  0.53573292  0.84827605  0.75755399     0.39900
H3932       H  0.53194138  0.84306300  0.69592608     0.34800
C3933       C  0.51040053  0.77667908  0.14566923    -0.26900
C3934       C  0.51423655  0.75124530  0.16301591    -0.15000
C3935       C  0.50373442  0.73032688  0.15423825     0.35600
C3936       C  0.48988853  0.73520307  0.12886707    -0.26400
C3937       C  0.48600043  0.76068451  0.11185299    -0.15600
C3938       C  0.49656169  0.78153601  0.12017168     0.36700
N3939       N  0.49341990  0.80774370  0.10250755    -0.89900
H3940       H  0.51837563  0.79295582  0.15063281     0.17800
H3941       H  0.48194890  0.71888069  0.12379933     0.17800
N3942       N  0.50692859  0.70403066  0.17136114    -0.88900
H3943       H  0.50224087  0.81340209  0.07829621     0.35200
H3944       H  0.49359088  0.82051709  0.13327489     0.40300
H3945       H  0.50681697  0.69144757  0.14030533     0.39900
H3946       H  0.49809685  0.69814348  0.19534031     0.34800
C3947       C  0.56434695  0.86320567  0.15920869    -0.26900
C3948       C  0.56186386  0.85476727  0.20834147    -0.15000
C3949       C  0.55922785  0.87360244  0.24626619     0.35600
C3950       C  0.55918511  0.90067366  0.23449401    -0.26400
C3951       C  0.56231660  0.90927528  0.18564668    -0.15600
C3952       C  0.56484760  0.89024764  0.14765274     0.36700
N3953       N  0.56797867  0.89826275  0.09718096    -0.89900
H3954       H  0.56651262  0.84880635  0.13004982     0.17800
H3955       H  0.55724082  0.91497609  0.26396768     0.17800
N3956       N  0.55663288  0.86523518  0.29685228    -0.88900
H3957       H  0.55967153  0.88981480  0.07378471     0.35200
H3958       H  0.57864721  0.89062123  0.08706791     0.40300
H3959       H  0.54596319  0.87240935  0.30806695     0.39900
H3960       H  0.56502015  0.87396801  0.31957417     0.34800
C3961       C  0.56450007  0.73391316  0.96909826    -0.26900
C3962       C  0.56143933  0.75910524  0.94923543    -0.15000
C3963       C  0.55928310  0.78047841  0.98271320     0.35600
C3964       C  0.56031601  0.77629392  0.03442366    -0.26400
C3965       C  0.56325665  0.75111093  0.05426819    -0.15600
C3966       C  0.56540826  0.72971303  0.02095761     0.36700
N3967       N  0.56863674  0.70366361  0.03934113    -0.89900
H3968       H  0.56642805  0.71729934  0.94433650     0.17800
H3969       H  0.55834173  0.79290670  0.05916267     0.17800
N3970       N  0.55581892  0.80652337  0.96476215    -0.88900
H3971       H  0.57910809  0.69760619  0.02439649     0.35200
H3972       H  0.56010389  0.69086692  0.02605980     0.40300
H3973       H  0.56429386  0.81946710  0.97792875     0.39900
H3974       H  0.54534071  0.81230147  0.98006307     0.34800
C3975       C  0.56162951  0.78171888  0.48037784    -0.26900
C3976       C  0.55894985  0.75982597  0.44893285    -0.15000
C3977       C  0.55684692  0.73470773  0.47096636     0.35600
C3978       C  0.55782789  0.73187157  0.52301421    -0.26400
C3979       C  0.56067405  0.75366919  0.55447513    -0.15600
C3980       C  0.56242695  0.77895277  0.53254073     0.36700
N3981       N  0.56498011  0.80198559  0.56271639    -0.89900
H3982       H  0.56334503  0.80126136  0.46457464     0.17800
H3983       H  0.55612365  0.71230376  0.53870299     0.17800
N3984       N  0.55363353  0.71189736  0.44095948    -0.88900
H3985       H  0.55613955  0.81539320  0.55552449     0.35200
H3986       H  0.57529940  0.81074493  0.55161678     0.40300
H3987       H  0.54315483  0.70390080  0.45251529     0.39900
H3988       H  0.56216976  0.69789826  0.44799846     0.34800
C3989       C  0.74374726  0.72947598  0.01252695    -0.26900
C3990       C  0.73743772  0.74812528  0.97887881    -0.15000
C3991       C  0.74563677  0.77188054  0.97028107     0.35600
C3992       C  0.75955462  0.77654827  0.99582011    -0.26400
C3993       C  0.76581196  0.75804485  0.02971719    -0.15600
C3994       C  0.75771533  0.73417461  0.03807225     0.36700
N3995       N  0.76351661  0.71494158  0.07299450    -0.89900
H3996       H  0.73750456  0.71138090  0.02033916     0.17800
H3997       H  0.76576912  0.79467875  0.98806034     0.17800
N3998       N  0.73989509  0.79124297  0.93549145    -0.88900
H3999       H  0.75627210  0.69844109  0.07464255     0.35200
H4000       H  0.76338127  0.72354635  0.10858771     0.40300
H4001       H  0.74003388  0.78272222  0.89982804     0.39900
H4002       H  0.74714511  0.80773929  0.93401099     0.34800
C4003       C  0.69355503  0.87203038  0.89274897    -0.26900
C4004       C  0.69243285  0.85368547  0.93229398    -0.15000
C4005       C  0.69144448  0.86283088  0.98187710     0.35600
C4006       C  0.69063210  0.89021592  0.99058944    -0.26400
C4007       C  0.69106327  0.90857931  0.95081295    -0.15600
C4008       C  0.69314128  0.89942208  0.90149176     0.36700
N4009       N  0.69394311  0.91774512  0.86028660    -0.89900
H4010       H  0.69441707  0.86485885  0.85461589     0.17800
H4011       H  0.68930321  0.89728211  0.02863434     0.17800
N4012       N  0.69063547  0.84437516  0.02284705    -0.88900
H4013       H  0.69452493  0.90761586  0.82623095     0.35200
H4014       H  0.70425993  0.92818570  0.86365253     0.40300
H4015       H  0.68040293  0.83370998  0.01921400     0.39900
H4016       H  0.69004511  0.85439790  0.05701562     0.34800
C4017       C  0.63353972  0.77651578  0.86109533    -0.26900
C4018       C  0.64225088  0.76022646  0.82987285    -0.15000
C4019       C  0.63461572  0.74413068  0.79387752     0.35600
C4020       C  0.61852536  0.74527341  0.79000265    -0.26400
C4021       C  0.60995966  0.76272984  0.81962710    -0.15600
C4022       C  0.61760449  0.77793734  0.85638610     0.36700
N4023       N  0.60922404  0.79487574  0.88934736    -0.89900
H4024       H  0.63921881  0.78877760  0.88888269     0.17800
H4025       H  0.61276782  0.73337691  0.76185837     0.17800
N4026       N  0.64264673  0.72744148  0.75920143    -0.88900
H4027       H  0.61335574  0.81417825  0.88485788     0.35200
H4028       H  0.61145829  0.78896309  0.92621060     0.40300
H4029       H  0.65448946  0.72874737  0.76353474     0.39900
H4030       H  0.64028109  0.73434786  0.72304475     0.34800
C4031       C  0.75698919  0.77999695  0.50627532    -0.26900
C4032       C  0.76461536  0.75950308  0.53197079    -0.15000
C4033       C  0.75816567  0.73379562  0.52997805     0.35600
C4034       C  0.74448239  0.72928031  0.50319906    -0.26400
C4035       C  0.73680167  0.74982646  0.47781111    -0.15600
C4036       C  0.74334658  0.77547441  0.47936962     0.36700
N4037       N  0.73624650  0.79718958  0.45382016    -0.89900
H4038       H  0.76176200  0.79981345  0.50605924     0.17800
H4039       H  0.73970447  0.70946775  0.50335259     0.17800
N4040       N  0.76538528  0.71204578  0.55504083    -0.88900
H4041       H  0.74412287  0.80500463  0.42828806     0.35200
H4042       H  0.73378648  0.81182486  0.48020244     0.40300
H4043       H  0.76787368  0.69758135  0.52835009     0.39900
H4044       H  0.75757011  0.70399918  0.58051572     0.34800
C4045       C  0.68774086  0.89066498  0.48813835    -0.26900
C4046       C  0.69079966  0.90842241  0.44861811    -0.15000
C4047       C  0.69581532  0.89838741  0.40215432     0.35600
C4048       C  0.69646114  0.87102593  0.39516505    -0.26400
C4049       C  0.69254334  0.85342954  0.43385463    -0.15600
C4050       C  0.68864981  0.86320670  0.48126554     0.36700
N4051       N  0.68460202  0.84528163  0.52099141    -0.89900
H4052       H  0.68419469  0.89824162  0.52422332     0.17800
H4053       H  0.69942973  0.86338891  0.35853814     0.17800
N4054       N  0.69948420  0.91526848  0.36069555    -0.88900
H4055       H  0.68145449  0.85574588  0.55307690     0.35200
H4056       H  0.69443043  0.83459566  0.53047752     0.40300
H4057       H  0.70871989  0.92736976  0.37084964     0.39900
H4058       H  0.68999176  0.92711032  0.35264910     0.34800
C4059       C  0.69334447  0.77374193  0.60662802    -0.26900
C4060       C  0.68812425  0.74968518  0.58639460    -0.15000
C4061       C  0.68355847  0.72917054  0.61934549     0.35600
C4062       C  0.68473575  0.73298467  0.67138180    -0.26400
C4063       C  0.69030965  0.75677805  0.69148338    -0.15600
C4064       C  0.69457890  0.77747910  0.65858763     0.36700
N4065       N  0.70033349  0.80214693  0.67793716    -0.89900
H4066       H  0.69699608  0.78950267  0.58178447     0.17800
H4067       H  0.68074797  0.71762947  0.69643215     0.17800
N4068       N  0.67754405  0.70468654  0.60005303    -0.88900
H4069       H  0.70272271  0.81539423  0.64883421     0.35200
H4070       H  0.71075392  0.79826048  0.69590827     0.40300
H4071       H  0.66721510  0.70893898  0.58181430     0.39900
H4072       H  0.67490340  0.69163319  0.62923279     0.34800
C4073       C  0.68962568  0.77570701  0.10653364    -0.26900
C4074       C  0.68736525  0.75025411  0.08674892    -0.15000
C4075       C  0.68531807  0.72871723  0.12028978     0.35600
C4076       C  0.68615865  0.73307284  0.17215427    -0.26400
C4077       C  0.68865931  0.75843529  0.19181155    -0.15600
C4078       C  0.69038475  0.78006401  0.15841087     0.36700
N4079       N  0.69318167  0.80634827  0.17699748    -0.89900
H4080       H  0.69131934  0.79231262  0.08142658     0.17800
H4081       H  0.68448763  0.71652597  0.19744627     0.17800
N4082       N  0.68232475  0.70246190  0.10190981    -0.88900
H4083       H  0.69381957  0.81998957  0.14756662     0.35200
H4084       H  0.70394341  0.80633876  0.19435813     0.40300
H4085       H  0.67157337  0.70271624  0.08448822     0.39900
H4086       H  0.68153921  0.68890347  0.13143693     0.34800
C4087       C  0.63220057  0.77577988  0.36680590    -0.26900
C4088       C  0.64099292  0.76037029  0.33413525    -0.15000
C4089       C  0.63342485  0.74468879  0.29739964     0.35600
C4090       C  0.61735091  0.74559209  0.29375386    -0.26400
C4091       C  0.60869130  0.76232765  0.32447953    -0.15600
C4092       C  0.61617681  0.77679073  0.36272029     0.36700
N4093       N  0.60748217  0.79256974  0.39717157    -0.89900
H4094       H  0.63794297  0.78755885  0.39518296     0.17800
H4095       H  0.61166676  0.73419380  0.26472532     0.17800
N4096       N  0.64149800  0.72874177  0.26157463    -0.88900
H4097       H  0.61472262  0.80205688  0.42281991     0.35200
H4098       H  0.60054430  0.77972187  0.41794198     0.40300
H4099       H  0.65334078  0.73018135  0.26558095     0.39900
H4100       H  0.63899658  0.73616348  0.22588684     0.34800
C4101       C  0.50535468  0.52873151  0.99327022    -0.26900
C4102       C  0.51432010  0.50752436  0.97596791    -0.15000
C4103       C  0.50853323  0.48147384  0.98346185     0.35600
C4104       C  0.49441389  0.47746888  0.00735044    -0.26400
C4105       C  0.48558580  0.49867513  0.02511433    -0.15600
C4106       C  0.49126213  0.52465644  0.01756502     0.36700
N4107       N  0.48276199  0.54720925  0.03396545    -0.89900
H4108       H  0.50937311  0.54889904  0.98880431     0.17800
H4109       H  0.49032307  0.45733822  0.01181235     0.17800
N4110       N  0.51671014  0.45844003  0.96816001    -0.88900
H4111       H  0.48050371  0.55913968  0.00277442     0.35200
H4112       H  0.48963467  0.55800320  0.05881864     0.40300
H4113       H  0.52701005  0.45764449  0.98818119     0.39900
H4114       H  0.51884510  0.45968400  0.92970736     0.34800
C4115       C  0.57895631  0.39479327  0.93299592    -0.26900
C4116       C  0.56489570  0.40791191  0.92848116    -0.15000
C4117       C  0.55115050  0.39306116  0.92819838     0.35600
C4118       C  0.55170116  0.36558963  0.93352267    -0.26400
C4119       C  0.56573069  0.35263879  0.93982498    -0.15600
C4120       C  0.57952877  0.36727867  0.93891615     0.36700
N4121       N  0.59403880  0.35409979  0.94378318    -0.89900
H4122       H  0.58953274  0.40609539  0.93176055     0.17800
H4123       H  0.54107744  0.35441311  0.93457348     0.17800
N4124       N  0.53651759  0.40527136  0.92196600    -0.88900
H4125       H  0.60306756  0.36774134  0.94250702     0.35200
H4126       H  0.59528726  0.34174357  0.91270087     0.40300
H4127       H  0.53659656  0.41631226  0.88880387     0.39900
H4128       H  0.53491301  0.41798739  0.95215510     0.34800
C4129       C  0.57315967  0.61751895  0.82769541    -0.26900
C4130       C  0.55916653  0.60536528  0.83984064    -0.15000
C4131       C  0.54542619  0.61960928  0.83385269     0.35600
C4132       C  0.54589419  0.64567954  0.81605859    -0.26400
C4133       C  0.55988833  0.65803150  0.80492650    -0.15600
C4134       C  0.57367384  0.64373743  0.81082379     0.36700
N4135       N  0.58826987  0.65501839  0.79850072    -0.89900
H4136       H  0.58378684  0.60671107  0.83211064     0.17800
H4137       H  0.53524671  0.65636437  0.81105833     0.17800
N4138       N  0.53094263  0.60745139  0.84453207    -0.88900
H4139       H  0.59023515  0.67136631  0.82157505     0.35200
H4140       H  0.58794290  0.66138843  0.76122016     0.40300
H4141       H  0.52429039  0.60791958  0.81187597     0.39900
H4142       H  0.52542999  0.61883401  0.87166445     0.34800
C4143       C  0.50943960  0.48325483  0.48697780    -0.26900
C4144       C  0.51361692  0.50950592  0.47541028    -0.15000
C4145       C  0.50346323  0.52999246  0.48882360     0.35600
C4146       C  0.48980243  0.52404926  0.51412145    -0.26400
C4147       C  0.48569390  0.49787390  0.52645862    -0.15600
C4148       C  0.49568829  0.47728054  0.51209826     0.36700
N4149       N  0.49207214  0.45023391  0.52315690    -0.89900
H4150       H  0.51709271  0.46715358  0.47781549     0.17800
H4151       H  0.48220065  0.54024764  0.52311153     0.17800
N4152       N  0.50685094  0.55699210  0.47661144    -0.88900
H4153       H  0.50095294  0.44244365  0.54499210     0.35200
H4154       H  0.49169830  0.43978762  0.48939138     0.40300
H4155       H  0.50712670  0.56785144  0.50991324     0.39900
H4156       H  0.49791097  0.56428909  0.45441421     0.34800
C4157       C  0.54890852  0.39362866  0.42623714    -0.26900
C4158       C  0.56216758  0.40840633  0.43663929    -0.15000
C4159       C  0.57552865  0.39555602  0.45270287     0.35600
C4160       C  0.57559285  0.36809618  0.45750803    -0.26400
C4161       C  0.56248772  0.35293818  0.44635993    -0.15600
C4162       C  0.54890905  0.36586417  0.43109162     0.36700
N4163       N  0.53519228  0.35094028  0.42135760    -0.89900
H4164       H  0.53871695  0.40368764  0.41299732     0.17800
H4165       H  0.58606182  0.35858880  0.46988116     0.17800
N4166       N  0.58910274  0.41045862  0.46408967    -0.88900
H4167       H  0.52634769  0.36342981  0.40962364     0.35200
H4168       H  0.53169538  0.34269269  0.45541712     0.40300
H4169       H  0.59792598  0.40368172  0.44109509     0.39900
H4170       H  0.59216016  0.40656081  0.50128848     0.34800
C4171       C  0.56643122  0.53125390  0.61845868    -0.26900
C4172       C  0.56153484  0.51029818  0.58764520    -0.15000
C4173       C  0.55564542  0.48714434  0.61015077     0.35600
C4174       C  0.55490503  0.48531382  0.66238972    -0.26400
C4175       C  0.55988690  0.50617076  0.69329347    -0.15600
C4176       C  0.56571053  0.52940497  0.67079080     0.36700
N4177       N  0.57127863  0.55094551  0.70065955    -0.89900
H4178       H  0.57090424  0.54927836  0.60191318     0.17800
H4179       H  0.55039718  0.46727682  0.67877648     0.17800
N4180       N  0.55000104  0.46564613  0.58031265    -0.88900
H4181       H  0.56507101  0.56787861  0.69105876     0.35200
H4182       H  0.58276677  0.55428667  0.69151833     0.40300
H4183       H  0.55613874  0.44864468  0.58996300     0.39900
H4184       H  0.53849211  0.46245708  0.58937282     0.34800
C4185       C  0.56025572  0.48100429  0.16222630    -0.26900
C4186       C  0.56194538  0.50332305  0.19325427    -0.15000
C4187       C  0.56440626  0.52826951  0.17089402     0.35600
C4188       C  0.56491033  0.53048182  0.11870304    -0.26400
C4189       C  0.56304351  0.50827256  0.08763049    -0.15600
C4190       C  0.56073114  0.48323289  0.10990150     0.36700
N4191       N  0.55845865  0.46008710  0.07980999    -0.89900
H4192       H  0.55842460  0.46160640  0.17854305     0.17800
H4193       H  0.56674474  0.54990536  0.10250065     0.17800
N4194       N  0.56669286  0.55145016  0.20079619    -0.88900
H4195       H  0.54778731  0.45190655  0.08874644     0.35200
H4196       H  0.56690191  0.44633152  0.08937709     0.40300
H4197       H  0.55829882  0.56522555  0.19086327     0.39900
H4198       H  0.57739970  0.55952461  0.19197053     0.34800
C4199       C  0.56169378  0.61031460  0.29025918    -0.26900
C4200       C  0.55820080  0.60543495  0.34066928    -0.15000
C4201       C  0.55564584  0.62700810  0.37300502     0.35600
C4202       C  0.55628503  0.65287403  0.35413066    -0.26400
C4203       C  0.55937396  0.65766787  0.30348292    -0.15600
C4204       C  0.56234016  0.63609337  0.27113039     0.36700
N4205       N  0.56618387  0.63942189  0.21907238    -0.89900
H4206       H  0.56388875  0.59392901  0.26530640     0.17800
H4207       H  0.55400098  0.66927074  0.37893468     0.17800
N4208       N  0.55267143  0.62281270  0.42517566    -0.88900
H4209       H  0.57704408  0.63125299  0.21369680     0.35200
H4210       H  0.56721167  0.65929249  0.20909539     0.40300
H4211       H  0.54209545  0.63135121  0.43357834     0.39900
H4212       H  0.56111432  0.63277192  0.44577350     0.34800
C4213       C  0.74494138  0.53055850  0.62601436    -0.26900
C4214       C  0.73689224  0.51062388  0.65179621    -0.15000
C4215       C  0.74347935  0.48516987  0.65486660     0.35600
C4216       C  0.75750773  0.48002593  0.63115275    -0.26400
C4217       C  0.76541734  0.49980680  0.60436587    -0.15600
C4218       C  0.75899018  0.52548723  0.60247383     0.36700
N4219       N  0.76657298  0.54663158  0.57656785    -0.89900
H4220       H  0.74011652  0.55020401  0.62262021     0.17800
H4221       H  0.76231687  0.46037613  0.63458141     0.17800
N4222       N  0.73606129  0.46440158  0.68229835    -0.88900
H4223       H  0.76867272  0.56187933  0.60214849     0.35200
H4224       H  0.75915819  0.55380785  0.54888735     0.40300
H4225       H  0.74358395  0.45785908  0.71023530     0.39900
H4226       H  0.73400415  0.44866521  0.65777479     0.34800
C4227       C  0.68715618  0.39086244  0.73723036    -0.26900
C4228       C  0.68941769  0.40786025  0.69591653    -0.15000
C4229       C  0.69274619  0.39695700  0.64873362     0.35600
C4230       C  0.69298831  0.36933340  0.64335556    -0.26400
C4231       C  0.69011715  0.35245835  0.68416675    -0.15600
C4232       C  0.68755583  0.36321727  0.73188262     0.36700
N4233       N  0.68444137  0.34616584  0.77383582    -0.89900
H4234       H  0.68476488  0.39921077  0.77373547     0.17800
H4235       H  0.69491013  0.36083921  0.60665702     0.17800
N4236       N  0.69512431  0.41383234  0.60608224    -0.88900
H4237       H  0.68219926  0.35732668  0.80591262     0.35200
H4238       H  0.69440473  0.33543606  0.78140048     0.40300
H4239       H  0.68478634  0.42352480  0.59898479     0.39900
H4240       H  0.69751339  0.40260988  0.57420351     0.34800
C4241       C  0.69104954  0.62765500  0.75882264    -0.26900
C4242       C  0.69227050  0.60520647  0.78939105    -0.15000
C4243       C  0.69411388  0.60829163  0.84144043     0.35600
C4244       C  0.69467623  0.63377493  0.86215496    -0.26400
C4245       C  0.69314275  0.65632655  0.83175156    -0.15600
C4246       C  0.69140334  0.65319741  0.77940578     0.36700
N4247       N  0.69026521  0.67590935  0.74721571    -0.89900
H4248       H  0.68972502  0.62521253  0.71869616     0.17800
H4249       H  0.69604052  0.63589767  0.90232715     0.17800
N4250       N  0.69572794  0.58563288  0.87324673    -0.88900
H4251       H  0.68888891  0.67011257  0.70987629     0.35200
H4252       H  0.70069633  0.68610347  0.74925545     0.40300
H4253       H  0.68711527  0.58645862  0.90029810     0.39900
H4254       H  0.70628814  0.58705240  0.89170191     0.34800
C4255       C  0.63484847  0.52213633  0.82061991    -0.26900
C4256       C  0.64147066  0.50077298  0.79507674    -0.15000
C4257       C  0.63200282  0.48033176  0.77714107     0.35600
C4258       C  0.61633892  0.48069922  0.78709956    -0.26400
C4259       C  0.60959833  0.50109970  0.81525559    -0.15600
C4260       C  0.61898054  0.52246038  0.83133205     0.36700
N4261       N  0.61255868  0.54403148  0.85914756    -0.89900
H4262       H  0.64217036  0.53793713  0.83427157     0.17800
H4263       H  0.60946394  0.46448338  0.77276849     0.17800
N4264       N  0.63828743  0.45902553  0.74849439    -0.88900
H4265       H  0.62092765  0.55835968  0.86665975     0.35200
H4266       H  0.60907633  0.53657560  0.89386686     0.40300
H4267       H  0.63275987  0.45861492  0.71367575     0.39900
H4268       H  0.63583479  0.44128653  0.76707494     0.34800
C4269       C  0.73922015  0.48461824  0.12878335    -0.26900
C4270       C  0.73595999  0.51014290  0.14693491    -0.15000
C4271       C  0.74743497  0.52999132  0.14185468     0.35600
C4272       C  0.76136609  0.52404669  0.11859571    -0.26400
C4273       C  0.76454460  0.49865489  0.10002382    -0.15600
C4274       C  0.75324654  0.47862174  0.10601598     0.36700
N4275       N  0.75543469  0.45210021  0.08864502    -0.89900
H4276       H  0.73067579  0.46906522  0.13141668     0.17800
H4277       H  0.76996452  0.53952296  0.11607099     0.17800
N4278       N  0.74554871  0.55632911  0.16052155    -0.88900
H4279       H  0.76417994  0.44324216  0.10948947     0.35200
H4280       H  0.75849038  0.45268822  0.05082012     0.40300
H4281       H  0.74257738  0.55535525  0.19839615     0.39900
H4282       H  0.73692842  0.56582041  0.14014040     0.34800
C4283       C  0.67298247  0.39361416  0.20160144    -0.26900
C4284       C  0.68622008  0.40897396  0.19359184    -0.15000
C4285       C  0.70015441  0.39608682  0.18210522     0.35600
C4286       C  0.70046842  0.36843113  0.17837583    -0.26400
C4287       C  0.68710089  0.35338330  0.18492091    -0.15600
C4288       C  0.67325798  0.36600845  0.19695020     0.36700
N4289       N  0.65949436  0.35067389  0.20363494    -0.89900
H4290       H  0.66230106  0.40323112  0.21106899     0.17800
H4291       H  0.71106198  0.35872690  0.16818263     0.17800
N4292       N  0.71415572  0.41041221  0.17464025    -0.88900
H4293       H  0.65023673  0.36295628  0.21197313     0.35200
H4294       H  0.66114383  0.33845621  0.23483474     0.40300
H4295       H  0.71641162  0.42174373  0.20657513     0.39900
H4296       H  0.71278536  0.42302698  0.14389847     0.34800
C4297       C  0.69419355  0.48784163  0.01371462    -0.26900
C4298       C  0.68775663  0.51097010  0.03331279    -0.15000
C4299       C  0.68259911  0.53093690  0.00031308     0.35600
C4300       C  0.68417396  0.52742562  0.94843162    -0.26400
C4301       C  0.69074432  0.50438820  0.92874069    -0.15600
C4302       C  0.69581365  0.48443736  0.96195653     0.36700
N4303       N  0.70283913  0.46083561  0.94345304    -0.89900
H4304       H  0.69847096  0.47263277  0.03876000     0.17800
H4305       H  0.67971333  0.54233335  0.92321122     0.17800
N4306       N  0.67556723  0.55448818  0.01955379    -0.88900
H4307       H  0.69643485  0.44462740  0.95604781     0.35200
H4308       H  0.71382224  0.45948603  0.95902904     0.40300
H4309       H  0.66539597  0.54881858  0.03723382     0.39900
H4310       H  0.67248728  0.56723810  0.99033781     0.34800
C4311       C  0.68262324  0.48679891  0.45761341    -0.26900
C4312       C  0.69024705  0.50554734  0.42757809    -0.15000
C4313       C  0.69718441  0.52764654  0.45041816     0.35600
C4314       C  0.69649149  0.53030881  0.50278901    -0.26400
C4315       C  0.68896122  0.51139701  0.53304705    -0.15600
C4316       C  0.68178818  0.48962975  0.50974172     0.36700
N4317       N  0.67335640  0.47060181  0.53845666    -0.89900
H4318       H  0.67695624  0.46997354  0.44041990     0.17800
H4319       H  0.70216898  0.54708008  0.52005975     0.17800
N4320       N  0.70512369  0.54701602  0.42061724    -0.88900
H4321       H  0.67798854  0.45195919  0.53131326     0.35200
H4322       H  0.66203349  0.47052581  0.52548166     0.40300
H4323       H  0.71453498  0.53767106  0.40431594     0.39900
H4324       H  0.70952195  0.56214256  0.44320736     0.34800
C4325       C  0.70574062  0.61802810  0.29842142    -0.26900
C4326       C  0.69164556  0.60668925  0.28461251    -0.15000
C4327       C  0.67811762  0.62133810  0.29092651     0.35600
C4328       C  0.67880698  0.64662976  0.31252761    -0.26400
C4329       C  0.69281474  0.65755324  0.32869222    -0.15600
C4330       C  0.70646859  0.64309634  0.32072802     0.36700
N4331       N  0.72124710  0.65359443  0.33343927    -0.89900
H4332       H  0.71625367  0.60711769  0.29261809     0.17800
H4333       H  0.66827469  0.65761929  0.31737050     0.17800
N4334       N  0.66371175  0.61086966  0.27418568    -0.88900
H4335       H  0.72184051  0.65628891  0.37218227     0.35200
H4336       H  0.72257604  0.67190792  0.31566507     0.40300
H4337       H  0.65914379  0.62396905  0.24773876     0.39900
H4338       H  0.65628945  0.61026455  0.30482107     0.34800
C4339       C  0.61952291  0.49041570  0.36080015    -0.26900
C4340       C  0.60961933  0.50427796  0.32899725    -0.15000
C4341       C  0.61571415  0.51854578  0.28798453     0.35600
C4342       C  0.63153821  0.51789319  0.27868958    -0.26400
C4343       C  0.64137399  0.50289904  0.30923552    -0.15600
C4344       C  0.63533371  0.48983431  0.35185382     0.36700
N4345       N  0.64528560  0.47587255  0.38580291    -0.89900
H4346       H  0.61481804  0.47948001  0.39219764     0.17800
H4347       H  0.63604585  0.52808882  0.24614255     0.17800
N4348       N  0.60600584  0.53250769  0.25362981    -0.88900
H4349       H  0.63901945  0.46712129  0.41479033     0.35200
H4350       H  0.65250624  0.48988241  0.40249962     0.40300
H4351       H  0.60000591  0.54690307  0.27353517     0.39900
H4352       H  0.59809001  0.51914052  0.23842806     0.34800
loop_ 
_geom_bond_atom_site_label_1 
_geom_bond_atom_site_label_2 
_geom_bond_distance 
_geom_bond_site_symmetry_2 
_ccdc_geom_bond_type 
O1           Ni7   1.938       .  S
O1           C22   1.274       .  A
O2          Ni25   1.924       .  S
O2           C11   1.270       .  A
O3           Ni7   1.897       .  S
O3          Ni25   1.904       .  S
O3          Ni19   1.910       .  S
O3           H26   0.967       .  S
C4           O21   1.282       .  A
C4           O13   1.276       .  A
C4         C4312   1.480       .  S
O5          Ni24   1.908       .  S
O5           C11   1.265       .  A
O6          Ni24   1.899       .  S
O6            C8   1.267       .  A
Ni7          O10   1.923       .  S
Ni7          O12   1.908       .  S
C8           O18   1.273       .  A
C8         C4343   1.483       .  S
O9          Ni25   1.915       .  S
O9           C15   1.280       .  A
O10          C15   1.279       .  A
C11        C4284   1.480       .  S
O12          C14   1.268       .  A
O13         Ni24   1.907       .  S
C14          O20   1.275       .  A
C14        C4270   1.499       .  S
C15        C4298   1.475       .  S
H16          O17   0.966       .  S
O17         Ni25   1.917       .  S
O17         Ni19   1.898       .  S
O17         Ni24   1.897       .  S
O18         Ni19   1.936       .  S
Ni19         O23   1.911       .  S
Ni19         O21   1.935       .  S
O20         Ni25   1.933       .  S
C22          O23   1.271       .  A
C22        C4326   1.478       .  S
O27         Ni33   1.933       .  S
O27          C48   1.274       .  A
O28         Ni51   1.928       .  S
O28          C37   1.271       .  A
O29         Ni33   1.904       .  S
O29         Ni51   1.910       .  S
O29         Ni45   1.917       .  S
O29          H52   0.966       .  S
C30          O47   1.279       .  A
C30          O39   1.273       .  A
C30        C4301   1.480       .  S
O31         Ni50   1.900       .  S
O31          C37   1.262       .  A
O32         Ni50   1.899       .  S
O32          C34   1.267       .  A
Ni33         O36   1.918       .  S
Ni33         O38   1.911       .  S
C34          O44   1.270       .  A
C34        C4256   1.477       .  S
O35         Ni51   1.925       .  S
O35          C41   1.280       .  A
O36          C41   1.276       .  A
C37        C4228   1.480       .  S
O38          C40   1.272       .  A
O39         Ni50   1.906       .  S
C40          O46   1.272       .  A
C40        C4214   1.492       .  S
C41        C4315   1.488       .  S
H42          O43   0.966       .  S
O43         Ni51   1.923       .  S
O43         Ni45   1.899       .  S
O43         Ni50   1.905       .  S
O44         Ni45   1.930       .  S
Ni45         O49   1.899       .  S
Ni45         O47   1.924       .  S
O46         Ni51   1.924       .  S
C48          O49   1.267       .  A
C48        C4242   1.473       .  S
O53         Ni59   1.923       .  S
O53          C74   1.272       .  A
O54         Ni77   1.915       .  S
O54          C63   1.267       .  A
O55         Ni59   1.898       .  S
O55         Ni77   1.899       .  S
O55         Ni71   1.914       .  S
O55          H78   0.966       .  S
C56          O73   1.279       .  A
C56          O65   1.277       .  A
C56        C4186   1.482       .  S
O57         Ni76   1.912       .  S
O57          C63   1.265       .  A
O58         Ni76   1.896       .  S
O58          C60   1.265       .  A
Ni59         O62   1.912       .  S
Ni59         O64   1.913       .  S
C60          O70   1.271       .  A
C60        C4340   1.473       .  S
O61         Ni77   1.921       .  S
O61          C67   1.279       .  A
O62          C67   1.277       .  A
C63        C4158   1.463       .  S
O64          C66   1.271       .  A
O65         Ni76   1.916       .  S
C66          O72   1.274       .  A
C66        C4144   1.495       .  S
C67        C4172   1.480       .  S
H68          O69   0.967       .  S
O69         Ni77   1.912       .  S
O69         Ni71   1.898       .  S
O69         Ni76   1.901       .  S
O70         Ni71   1.934       .  S
Ni71         O75   1.904       .  S
Ni71         O73   1.916       .  S
O72         Ni77   1.927       .  S
C74          O75   1.269       .  A
C74        C4200   1.478       .  S
O79         Ni85   1.933       .  S
O79         C100   1.274       .  A
O80        Ni103   1.918       .  S
O80          C89   1.269       .  A
O81         Ni85   1.894       .  S
O81        Ni103   1.897       .  S
O81         Ni97   1.907       .  S
O81         H104   0.966       .  S
C82          O99   1.280       .  A
C82          O91   1.276       .  A
C82        C4175   1.482       .  S
O83        Ni102   1.910       .  S
O83          C89   1.264       .  A
O84        Ni102   1.895       .  S
O84          C86   1.267       .  A
Ni85         O88   1.919   1_556  S
Ni85         O90   1.911       .  S
C86          O96   1.273       .  A
C86        C4259   1.494       .  S
O87        Ni103   1.914   1_554  S
O87          C93   1.279       .  A
O88          C93   1.280       .  A
C89        C4116   1.469       .  S
O90          C92   1.271       .  A
O91        Ni102   1.906       .  S
C92          O98   1.273       .  A
C92        C4102   1.506       .  S
C93        C4189   1.482       .  S
H94          O95   0.966       .  S
O95        Ni103   1.913       .  S
O95         Ni97   1.896       .  S
O95        Ni102   1.892       .  S
O96         Ni97   1.939       .  S
Ni97        O101   1.903       .  S
Ni97         O99   1.927       .  S
O98        Ni103   1.933       .  S
C100        O101   1.269       .  A
C100       C4130   1.475       .  S
O105       Ni111   1.943       .  S
O105        C126   1.276       .  A
O106       Ni129   1.915       .  S
O106        C115   1.268       .  A
O107       Ni111   1.902       .  S
O107       Ni129   1.899       .  S
O107       Ni123   1.908       .  S
O107        H130   0.967       .  S
C108        O125   1.277       .  A
C108        O117   1.272       .  A
C108       C4077   1.485       .  S
O109       Ni128   1.907       .  S
O109        C115   1.264       .  A
O110       Ni128   1.900       .  S
O110        C112   1.267       .  A
Ni111       O114   1.925       .  S
Ni111       O116   1.914       .  S
C112        O122   1.272       .  A
C112       C4088   1.479       .  S
O113       Ni129   1.919       .  S
O113        C119   1.280       .  A
O114        C119   1.279       .  A
C115       C4049   1.464       .  S
O116        C118   1.272       .  A
O117       Ni128   1.912       .  S
C118        O124   1.273       .  A
C118       C4035   1.500       .  S
C119       C4060   1.486       .  S
H120        O121   0.966       .  S
O121       Ni129   1.919       .  S
O121       Ni123   1.905       .  S
O121       Ni128   1.912       .  S
O122       Ni123   1.934       .  S
Ni123       O127   1.902       .  S
Ni123       O125   1.918       .  S
O124       Ni129   1.926       .  S
C126        O127   1.267       .  A
C126       C4329   1.484       .  S
O131       Ni137   1.936       .  S
O131        C152   1.275       .  A
O132       Ni155   1.925       .  S
O132        C141   1.271       .  A
O133       Ni137   1.904       .  S
O133       Ni155   1.903       .  S
O133       Ni149   1.912       .  S
O133        H156   0.966       .  S
C134        O151   1.277       .  A
C134        O143   1.272       .  A
C134       C4063   1.483       .  S
O135       Ni154   1.908       .  S
O135        C141   1.265       .  A
O136       Ni154   1.900       .  S
O136        C138   1.267       .  A
Ni137       O140   1.916   1_556  S
Ni137       O142   1.916       .  S
C138        O148   1.272       .  A
C138       C4018   1.479       .  S
O139       Ni155   1.923   1_554  S
O139        C145   1.281       .  A
O140        C145   1.276       .  A
C141       C4004   1.475       .  S
O142        C144   1.272       .  A
O143       Ni154   1.911       .  S
C144        O150   1.277       .  A
C144       C3990   1.502       .  S
C145       C4074   1.490       .  S
H146        O147   0.966       .  S
O147       Ni155   1.923       .  S
O147       Ni149   1.908       .  S
O147       Ni154   1.913       .  S
O148       Ni149   1.935       .  S
Ni149       O153   1.899       .  S
Ni149       O151   1.923       .  S
O150       Ni155   1.936       .  S
C152        O153   1.267       .  A
C152       C4245   1.481       .  S
O157       Ni163   1.922       .  S
O157        C178   1.270       .  A
O158       Ni181   1.920       .  S
O158        C167   1.271       .  A
O159       Ni163   1.896       .  S
O159       Ni181   1.897       .  S
O159       Ni175   1.912       .  S
O159        H182   0.967       .  S
C160        O177   1.278       .  A
C160        O169   1.275       .  A
C160       C3976   1.485       .  S
O161       Ni180   1.907       .  S
O161        C167   1.265       .  A
O162       Ni180   1.907       .  S
O162        C164   1.269       .  A
Ni163       O166   1.915       .  S
Ni163       O168   1.904       .  S
C164        O174   1.272       .  A
C164       C4091   1.485       .  S
O165       Ni181   1.918       .  S
O165        C171   1.281       .  A
O166        C171   1.277       .  A
C167       C3948   1.469       .  S
O168        C170   1.268       .  A
O169       Ni180   1.907       .  S
C170        O176   1.276       .  A
C170       C3934   1.495       .  S
C171       C3965   1.483       .  S
H172        O173   0.966       .  S
O173       Ni181   1.921       .  S
O173       Ni175   1.899       .  S
O173       Ni180   1.905       .  S
O174       Ni175   1.932       .  S
Ni175       O179   1.906       .  S
Ni175       O177   1.921       .  S
O176       Ni181   1.936       .  S
C178        O179   1.268       .  A
C178       C4203   1.469       .  S
O183       Ni189   1.930       .  S
O183        C204   1.272       .  A
O184       Ni207   1.918       .  S
O184        C193   1.269       .  A
O185       Ni189   1.896       .  S
O185       Ni207   1.898       .  S
O185       Ni201   1.909       .  S
O185        H208   0.967       .  S
C186        O203   1.281       .  A
C186        O195   1.275       .  A
C186       C3962   1.486       .  S
O187       Ni206   1.914       .  S
O187        C193   1.266       .  A
O188       Ni206   1.901       .  S
O188        C190   1.267       .  A
Ni189       O192   1.920       .  S
Ni189       O194   1.906       .  S
C190        O200   1.272       .  A
C190       C4021   1.485       .  S
O191       Ni207   1.912       .  S
O191        C197   1.278       .  A
O192        C197   1.280       .  A
C193       C3920   1.470       .  S
O194        C196   1.269       .  A
O195       Ni206   1.907       .  S
C196        O202   1.275       .  A
C196       C3909   1.495       .  S
C197       C3979   1.486       .  S
H198        O199   0.966       .  S
O199       Ni207   1.910       .  S
O199       Ni201   1.898       .  S
O199       Ni206   1.898       .  S
O200       Ni201   1.933       .  S
Ni201       O205   1.905       .  S
Ni201       O203   1.928       .  S
O202       Ni207   1.930       .  S
C204        O205   1.268       .  A
C204       C4133   1.472       .  S
O209       Ni215   1.930       .  S
O209        C230   1.274       .  A
O210       Ni233   1.916       .  S
O210        C219   1.269       .  A
O211       Ni215   1.892       .  S
O211       Ni233   1.891   1_545  S
O211       Ni227   1.911       .  S
O211        H234   0.966       .  S
C212        O229   1.280   1_565  A
C212        O221   1.276       .  A
C212       C3850   1.480   1_565  S
O213       Ni232   1.908       .  S
O213        C219   1.267       .  A
O214       Ni232   1.907       .  S
O214        C216   1.268       .  A
Ni215       O218   1.918       .  S
Ni215       O220   1.912       .  S
C216        O226   1.272   1_565  A
C216       C3892   1.479       .  S
O217       Ni233   1.926       .  S
O217        C223   1.283   1_565  A
O218        C223   1.280       .  A
C219       C4046   1.477       .  S
O220        C222   1.268       .  A
O221       Ni232   1.918       .  S
C222        O228   1.275   1_545  A
C222       C3836   1.504       .  S
C223       C3867   1.484       .  S
H224        O225   0.966       .  S
O225       Ni233   1.924       .  S
O225       Ni227   1.897   1_565  S
O225       Ni232   1.903       .  S
O226       Ni227   1.931       .  S
Ni227       O231   1.907       .  S
Ni227       O229   1.924       .  S
O228       Ni233   1.932       .  S
C230        O231   1.269       .  A
C230       C3878   1.475       .  S
O235       Ni241   1.933       .  S
O235        C256   1.274   1_556  A
O236       Ni259   1.916       .  S
O236        C245   1.269       .  A
O237       Ni241   1.902       .  S
O237       Ni259   1.900   1_545  S
O237       Ni253   1.915   1_556  S
O237        H260   0.967       .  S
C238        O255   1.279       .  A
C238        O247   1.274   1_545  A
C238       C3864   1.489       .  S
O239       Ni258   1.912   1_556  S
O239        C245   1.267       .  A
O240       Ni258   1.901       .  S
O240        C242   1.269       .  A
Ni241       O244   1.919       .  S
Ni241       O246   1.918       .  S
C242        O252   1.272   1_565  A
C242       C3822   1.491   1_565  S
O243       Ni259   1.924       .  S
O243        C249   1.280   1_565  A
O244        C249   1.278       .  A
C245       C4007   1.479       .  S
O246        C248   1.271       .  A
O247       Ni258   1.908       .  S
C248        O254   1.274   1_545  A
C248       C3797   1.489       .  S
C249       C3853   1.483       .  S
H250        O251   0.967       .  S
O251       Ni259   1.917   1_554  S
O251       Ni253   1.901   1_565  S
O251       Ni258   1.901       .  S
O252       Ni253   1.935       .  S
Ni253       O257   1.897       .  S
Ni253       O255   1.928       .  S
O254       Ni259   1.923       .  S
C256        O257   1.268       .  A
C256       C3808   1.478       .  S
O261       Ni267   1.941       .  S
O261        C282   1.276       .  A
O262       Ni285   1.926       .  S
O262        C271   1.270       .  A
O263       Ni267   1.897       .  S
O263       Ni285   1.901   1_545  S
O263       Ni279   1.906       .  S
O263        H286   0.966       .  S
C264        O281   1.278       .  A
C264        O273   1.275   1_545  A
C264       C3752   1.489   1_554  S
O265       Ni284   1.905       .  S
O265        C271   1.262       .  A
O266       Ni284   1.899       .  S
O266        C268   1.265       .  A
Ni267       O270   1.928       .  S
Ni267       O272   1.911       .  S
C268        O278   1.271   1_565  A
C268       C3825   1.476   1_565  S
O269       Ni285   1.910       .  S
O269        C275   1.278   1_565  A
O270        C275   1.280       .  A
C271       C3951   1.479       .  S
O272        C274   1.271       .  A
O273       Ni284   1.908       .  S
C274        O280   1.273   1_545  A
C274       C3738   1.498       .  S
C275       C3766   1.486       .  S
H276        O277   0.967       .  S
O277       Ni285   1.921       .  S
O277       Ni279   1.901   1_565  S
O277       Ni284   1.904       .  S
O278       Ni279   1.930       .  S
Ni279       O283   1.900       .  S
Ni279       O281   1.926       .  S
O280       Ni285   1.932       .  S
C282        O283   1.268       .  A
C282       C3783   1.482       .  S
O287       Ni293   1.943       .  S
O287        C308   1.277       .  A
O288       Ni311   1.920       .  S
O288        C297   1.269       .  A
O289       Ni293   1.897       .  S
O289       Ni311   1.898   1_545  S
O289       Ni305   1.904       .  S
O289        H312   0.967       .  S
C290        O307   1.278       .  A
C290        O299   1.276   1_545  A
C290       C3769   1.486       .  S
O291       Ni310   1.914       .  S
O291        C297   1.267       .  A
O292       Ni310   1.906       .  S
O292        C294   1.268       .  A
Ni293       O296   1.928       .  S
Ni293       O298   1.914       .  S
C294        O304   1.273   1_565  A
C294       C3895   1.486       .  S
O295       Ni311   1.912       .  S
O295        C301   1.279   1_565  A
O296        C301   1.280       .  A
C297       C3923   1.473       .  S
O298        C300   1.270       .  A
O299       Ni310   1.909       .  S
C300        O306   1.273   1_545  A
C300       C3710   1.498       .  S
C301       C3755   1.484       .  S
H302        O303   0.966       .  S
O303       Ni311   1.913       .  S
O303       Ni305   1.895   1_565  S
O303       Ni310   1.898       .  S
O304       Ni305   1.930       .  S
Ni305       O309   1.899       .  S
Ni305       O307   1.924       .  S
O306       Ni311   1.927       .  S
C308        O309   1.268       .  A
C308       C3727   1.478       .  S
O313       Ni319   1.933       .  S
O313        C334   1.273       .  A
O314       Ni337   1.919       .  S
O314        C323   1.268       .  A
O315       Ni319   1.904       .  S
O315       Ni337   1.906       .  S
O315       Ni331   1.915       .  S
O315        H338   0.966       .  S
C316        O333   1.279   1_556  A
C316        O325   1.275   1_556  A
C316       C3671   1.491       .  S
O317       Ni336   1.915       .  S
O317        C323   1.265       .  A
O318       Ni336   1.898       .  S
O318        C320   1.268       .  A
Ni319       O322   1.920       .  S
Ni319       O324   1.909       .  S
C320        O330   1.271       .  A
C320       C3696   1.494       .  S
O321       Ni337   1.918       .  S
O321        C327   1.278       .  A
O322        C327   1.276       .  A
C323       C4287   1.467       .  S
O324        C326   1.270       .  A
O325       Ni336   1.914       .  S
C326        O332   1.275       .  A
C326       C3654   1.496       .  S
C327       C3682   1.479       .  S
H328        O329   0.966       .  S
O329       Ni337   1.916       .  S
O329       Ni331   1.899       .  S
O329       Ni336   1.904       .  S
O330       Ni331   1.935       .  S
Ni331       O335   1.894       .  S
Ni331       O333   1.927       .  S
O332       Ni337   1.930       .  S
C334        O335   1.266       .  A
C334       C3811   1.470       .  S
O339       Ni345   1.933       .  S
O339        C360   1.274       .  A
O340       Ni363   1.922       .  S
O340        C349   1.269       .  A
O341       Ni345   1.901       .  S
O341       Ni363   1.898       .  S
O341       Ni357   1.915       .  S
O341        H364   0.966       .  S
C342        O359   1.281       .  A
C342        O351   1.274       .  A
C342       C3685   1.484       .  S
O343       Ni362   1.906       .  S
O343        C349   1.264       .  A
O344       Ni362   1.899       .  S
O344        C346   1.267       .  A
Ni345       O348   1.927       .  S
Ni345       O350   1.910       .  S
C346        O356   1.273       .  A
C346       C3640   1.482       .  S
O347       Ni363   1.919       .  S
O347        C353   1.281       .  A
O348        C353   1.279       .  A
C349       C4231   1.470       .  S
O350        C352   1.271       .  A
O351       Ni362   1.910       .  S
C352        O358   1.272       .  A
C352       C3626   1.490       .  S
C353       C3668   1.486       .  S
H354        O355   0.967       .  S
O355       Ni363   1.925       .  S
O355       Ni357   1.901       .  S
O355       Ni362   1.902       .  S
O356       Ni357   1.936       .  S
Ni357       O361   1.907       .  S
Ni357       O359   1.928       .  S
O358       Ni363   1.924       .  S
C360        O361   1.269       .  A
C360       C3881   1.478       .  S
O365       Ni371   1.943       .  S
O365        C386   1.277       .  A
O366       Ni389   1.925       .  S
O366        C375   1.271       .  A
O367       Ni371   1.891       .  S
O367       Ni389   1.895       .  S
O367       Ni383   1.906       .  S
O367        H390   0.967       .  S
C368        O385   1.281       .  A
C368        O377   1.277       .  A
C368       C3598   1.491       .  S
O369       Ni388   1.904       .  S
O369        C375   1.264       .  A
O370       Ni388   1.899       .  S
O370        C372   1.267       .  A
Ni371       O374   1.925       .  S
Ni371       O376   1.915       .  S
C372        O382   1.273       .  A
C372       C3643   1.495       .  S
O373       Ni389   1.913       .  S
O373        C379   1.280       .  A
O374        C379   1.282       .  A
C375       C4161   1.478       .  S
O376        C378   1.272       .  A
O377       Ni388   1.910       .  S
C378        O384   1.274       .  A
C378       C3584   1.499       .  S
C379       C3615   1.485       .  S
H380        O381   0.966       .  S
O381       Ni389   1.916       .  S
O381       Ni383   1.891       .  S
O381       Ni388   1.889       .  S
O382       Ni383   1.939       .  S
Ni383       O387   1.899       .  S
Ni383       O385   1.929       .  S
O384       Ni389   1.930       .  S
C386        O387   1.269       .  A
C386       C3724   1.475       .  S
O391       Ni397   1.940       .  S
O391        C412   1.275   1_556  A
O392       Ni415   1.913       .  S
O392        C401   1.268       .  A
O393       Ni397   1.896       .  S
O393       Ni415   1.897       .  S
O393       Ni409   1.906   1_556  S
O393        H416   0.966       .  S
C394        O411   1.279       .  A
C394        O403   1.276       .  A
C394       C3612   1.481       .  S
O395       Ni414   1.911   1_556  S
O395        C401   1.264       .  A
O396       Ni414   1.900       .  S
O396        C398   1.265       .  A
Ni397       O400   1.928       .  S
Ni397       O402   1.911       .  S
C398        O408   1.272       .  A
C398       C3699   1.479       .  S
O399       Ni415   1.911       .  S
O399        C405   1.278       .  A
O400        C405   1.281       .  A
C401       C4119   1.466       .  S
O402        C404   1.271       .  A
O403       Ni414   1.910       .  S
C404        O410   1.274       .  A
C404       C3570   1.500       .  S
C405       C3601   1.486       .  S
H406        O407   0.966       .  S
O407       Ni415   1.914   1_554  S
O407       Ni409   1.896       .  S
O407       Ni414   1.900       .  S
O408       Ni409   1.936       .  S
Ni409       O413   1.901       .  S
Ni409       O411   1.923       .  S
O410       Ni415   1.934       .  S
C412        O413   1.268       .  A
C412       C3780   1.471       .  S
O417       Ni423   1.908       .  S
O417        C438   1.265       .  A
O418       Ni441   1.897       .  S
O418        C427   1.267       .  A
O419       Ni423   1.897       .  S
O419       Ni441   1.898       .  S
O419       Ni435   1.917       .  S
O419        H442   0.967       .  S
C420        O437   1.279       .  A
C420        O429   1.279       .  A
C420       C3531   1.475       .  S
O421       Ni440   1.933       .  S
O421        C427   1.274       .  A
O422       Ni440   1.908       .  S
O422        C424   1.269       .  A
Ni423       O426   1.906       .  S
Ni423       O428   1.905       .  S
C424        O434   1.271       .  A
C424       C3486   1.491       .  S
O425       Ni441   1.924       .  S
O425        C431   1.276       .  A
O426        C431   1.274       .  A
C427       C3542   1.471       .  S
O428        C430   1.270       .  A
O429       Ni440   1.923       .  S
C430        O436   1.273       .  A
C430       C3556   1.495       .  S
C431       C3514   1.486       .  S
H432        O433   0.967       .  S
O433       Ni441   1.905       .  S
O433       Ni435   1.896       .  S
O433       Ni440   1.898       .  S
O434       Ni435   1.920       .  S
Ni435       O439   1.915       .  S
Ni435       O437   1.913       .  S
O436       Ni441   1.932       .  S
C438        O439   1.268       .  A
C438       C3503   1.466       .  S
O443       Ni449   1.914       .  S
O443        C464   1.266       .  A
O444       Ni467   1.897       .  S
O444        C453   1.266       .  A
O445       Ni449   1.900       .  S
O445       Ni467   1.895       .  S
O445       Ni461   1.916       .  S
O445        H468   0.966       .  S
C446        O463   1.281       .  A
C446        O455   1.279       .  A
C446       C3517   1.488       .  S
O447       Ni466   1.935       .  S
O447        C453   1.273       .  A
O448       Ni466   1.909       .  S
O448        C450   1.270       .  A
Ni449       O452   1.914       .  S
Ni449       O454   1.901       .  S
C450        O460   1.271       .  A
C450       C3430   1.494       .  S
O451       Ni467   1.919       .  S
O451        C457   1.277   1_556  A
O452        C457   1.277   1_556  A
C453       C3458   1.470       .  S
O454        C456   1.268       .  A
O455       Ni466   1.920       .  S
C456        O462   1.270       .  A
C456       C3472   1.487       .  S
C457       C3528   1.482       .  S
H458        O459   0.967       .  S
O459       Ni467   1.903       .  S
O459       Ni461   1.897       .  S
O459       Ni466   1.896       .  S
O460       Ni461   1.924       .  S
Ni461       O465   1.921       .  S
Ni461       O463   1.918       .  S
O462       Ni467   1.928       .  S
C464        O465   1.270       .  A
C464       C3444   1.474       .  S
O469       Ni475   1.905   1_554  S
O469        C490   1.263       .  A
O470       Ni493   1.891       .  S
O470        C479   1.264       .  A
O471       Ni475   1.902       .  S
O471       Ni493   1.898       .  S
O471       Ni487   1.921   1_556  S
O471        H494   0.966       .  S
C472        O489   1.283       .  A
C472        O481   1.279       .  A
C472       C3402   1.487       .  S
O473       Ni492   1.930       .  S
O473        C479   1.272   1_554  A
O474       Ni492   1.907       .  S
O474        C476   1.268       .  A
Ni475       O478   1.911       .  S
Ni475       O480   1.896       .  S
C476        O486   1.276       .  A
C476       C4273   1.494       .  S
O477       Ni493   1.921       .  S
O477        C483   1.278       .  A
O478        C483   1.275       .  A
C479       C3416   1.464       .  S
O480        C482   1.266       .  A
O481       Ni492   1.916       .  S
C482        O488   1.269       .  A
C482       C3475   1.474       .  S
C483       C3388   1.476       .  S
H484        O485   0.966       .  S
O485       Ni493   1.910   1_554  S
O485       Ni487   1.895       .  S
O485       Ni492   1.894       .  S
O486       Ni487   1.933       .  S
Ni487       O491   1.923       .  S
Ni487       O489   1.926       .  S
O488       Ni493   1.929       .  S
C490        O491   1.273       .  A
C490       C3374   1.484       .  S
O495       Ni501   1.911       .  S
O495        C516   1.266       .  A
O496       Ni519   1.895       .  S
O496        C505   1.268       .  A
O497       Ni501   1.903       .  S
O497       Ni519   1.904       .  S
O497       Ni513   1.921       .  S
O497        H520   0.966       .  S
C498        O515   1.282       .  A
C498        O507   1.278       .  A
C498       C3391   1.477       .  S
O499       Ni518   1.931       .  S
O499        C505   1.273       .  A
O500       Ni518   1.916       .  S
O500        C502   1.271       .  A
Ni501       O504   1.911       .  S
Ni501       O506   1.896       .  S
C502        O512   1.269       .  A
C502       C4217   1.496       .  S
O503       Ni519   1.920       .  S
O503        C509   1.275       .  A
O504        C509   1.273       .  A
C505       C3363   1.472       .  S
O506        C508   1.267       .  A
O507       Ni518   1.915       .  S
C508        O514   1.275       .  A
C508       C3559   1.486       .  S
C509       C3405   1.489       .  S
H510        O511   0.966       .  S
O511       Ni519   1.904       .  S
O511       Ni513   1.891       .  S
O511       Ni518   1.899       .  S
O512       Ni513   1.918       .  S
Ni513       O517   1.914       .  S
Ni513       O515   1.921       .  S
O514       Ni519   1.940       .  S
C516        O517   1.268       .  A
C516       C3346   1.473       .  S
O521       Ni527   1.905   1_554  S
O521        C542   1.265       .  A
O522       Ni545   1.901       .  S
O522        C531   1.268       .  A
O523       Ni527   1.900       .  S
O523       Ni545   1.896       .  S
O523       Ni539   1.920   1_556  S
O523        H546   0.967       .  S
C524        O541   1.279       .  A
C524        O533   1.278       .  A
C524       C3321   1.482       .  S
O525       Ni544   1.931       .  S
O525        C531   1.273   1_554  A
O526       Ni544   1.907       .  S
O526        C528   1.270       .  A
Ni527       O530   1.904       .  S
Ni527       O532   1.906       .  S
C528        O538   1.273       .  A
C528       C3279   1.493       .  S
O529       Ni545   1.931       .  S
O529        C535   1.281       .  A
O530        C535   1.274       .  A
C531       C3461   1.473       .  S
O532        C534   1.269       .  A
O533       Ni544   1.922       .  S
C534        O540   1.272       .  A
C534       C3335   1.491       .  S
C535       C3304   1.484       .  S
H536        O537   0.966       .  S
O537       Ni545   1.911   1_554  S
O537       Ni539   1.900       .  S
O537       Ni544   1.899       .  S
O538       Ni539   1.933       .  S
Ni539       O543   1.913       .  S
Ni539       O541   1.917       .  S
O540       Ni545   1.931       .  S
C542        O543   1.269       .  A
C542       C3293   1.468       .  S
O547       Ni553   1.912       .  S
O547        C568   1.266       .  A
O548       Ni571   1.898       .  S
O548        C557   1.266       .  A
O549       Ni553   1.896       .  S
O549       Ni571   1.893       .  S
O549       Ni565   1.915       .  S
O549        H572   0.966       .  S
C550        O567   1.281       .  A
C550        O559   1.278       .  A
C550       C3307   1.478       .  S
O551       Ni570   1.930       .  S
O551        C557   1.273       .  A
O552       Ni570   1.908       .  S
O552        C554   1.270       .  A
Ni553       O556   1.913       .  S
Ni553       O558   1.897       .  S
C554        O564   1.272       .  A
C554       C3234   1.494       .  S
O555       Ni571   1.924       .  S
O555        C561   1.279       .  A
O556        C561   1.277       .  A
C557       C3545   1.470       .  S
O558        C560   1.267       .  A
O559       Ni570   1.918       .  S
C560        O566   1.270       .  A
C560       C3262   1.492       .  S
C561       C3318   1.489       .  S
H562        O563   0.966       .  S
O563       Ni571   1.906       .  S
O563       Ni565   1.896       .  S
O563       Ni570   1.895       .  S
O564       Ni565   1.923       .  S
Ni565       O569   1.919       .  S
Ni565       O567   1.919       .  S
O566       Ni571   1.929       .  S
C568        O569   1.269       .  A
C568       C3248   1.467       .  S
O573       Ni579   1.900       .  S
O573        C594   1.262       .  A
O574       Ni597   1.896       .  S
O574        C583   1.266       .  A
O575       Ni579   1.901       .  S
O575       Ni597   1.899       .  S
O575       Ni591   1.924       .  S
O575        H598   0.966       .  S
C576        O593   1.282       .  A
C576        O585   1.279       .  A
C576       C3220   1.488       .  S
O577       Ni596   1.932       .  S
O577        C583   1.272       .  A
O578       Ni596   1.905       .  S
O578        C580   1.268       .  A
Ni579       O582   1.905       .  S
Ni579       O584   1.897       .  S
C580        O590   1.274       .  A
C580       C3657   1.496       .  S
O581       Ni597   1.927       .  S
O581        C587   1.279       .  A
O582        C587   1.272       .  A
C583       C3360   1.466       .  S
O584        C586   1.266       .  A
O585       Ni596   1.921       .  S
C586        O592   1.271       .  A
C586       C3265   1.473       .  S
C587       C3206   1.481       .  S
H588        O589   0.966       .  S
O589       Ni597   1.909       .  S
O589       Ni591   1.897       .  S
O589       Ni596   1.895       .  S
O590       Ni591   1.930       .  S
Ni591       O595   1.920       .  S
Ni591       O593   1.924       .  S
O592       Ni597   1.928       .  S
C594        O595   1.270       .  A
C594       C3192   1.471       .  S
O599       Ni605   1.907       .  S
O599        C620   1.265       .  A
O600       Ni623   1.892       .  S
O600        C609   1.266       .  A
O601       Ni605   1.895       .  S
O601       Ni623   1.897       .  S
O601       Ni617   1.916       .  S
O601        H624   0.966       .  S
C602        O619   1.282       .  A
C602        O611   1.278       .  A
C602       C3209   1.476       .  S
O603       Ni622   1.932       .  S
O603        C609   1.274       .  A
O604       Ni622   1.912       .  S
O604        C606   1.271       .  A
Ni605       O608   1.913       .  S
Ni605       O610   1.894       .  S
C606        O616   1.272       .  A
C606       C3629   1.494       .  S
O607       Ni623   1.921       .  S
O607        C613   1.277   1_556  A
O608        C613   1.276   1_556  A
C609       C3419   1.470       .  S
O610        C612   1.265       .  A
O611       Ni622   1.917       .  S
C612        O618   1.271       .  A
C612       C3332   1.477       .  S
C613       C3223   1.484       .  S
H614        O615   0.966       .  S
O615       Ni623   1.906       .  S
O615       Ni617   1.895       .  S
O615       Ni622   1.894       .  S
O616       Ni617   1.921       .  S
Ni617       O621   1.921       .  S
Ni617       O619   1.923       .  S
O618       Ni623   1.935       .  S
C620        O621   1.269       .  A
C620       C3178   1.470       .  S
O625       Ni631   1.908       .  S
O625        C646   1.266       .  A
O626       Ni649   1.909       .  S
O626        C635   1.270       .  A
O627       Ni631   1.902       .  S
O627       Ni649   1.899       .  S
O627       Ni643   1.920       .  S
O627        H650   0.966       .  S
C628        O645   1.280       .  A
C628        O637   1.280       .  A
C628       C3122   1.488       .  S
O629       Ni648   1.933       .  S
O629        C635   1.275       .  A
O630       Ni648   1.916       .  S
O630        C632   1.271       .  A
Ni631       O634   1.909       .  S
Ni631       O636   1.909       .  S
C632        O642   1.276       .  A
C632       C3111   1.505       .  S
O633       Ni649   1.928       .  S
O633        C639   1.282       .  A
O634        C639   1.274       .  A
C635       C3153   1.481       .  S
O636        C638   1.269       .  A
O637       Ni648   1.924       .  S
C638        O644   1.276       .  A
C638       C3164   1.498       .  S
C639       C3136   1.486       .  S
H640        O641   0.966       .  S
O641       Ni649   1.911       .  S
O641       Ni643   1.898       .  S
O641       Ni648   1.898       .  S
O642       Ni643   1.943       .  S
Ni643       O647   1.916       .  S
Ni643       O645   1.914       .  S
O644       Ni649   1.946       .  S
C646        O647   1.270       .  A
C646       C3500   1.478       .  S
O651       Ni657   1.917       .  S
O651        C672   1.267       .  A
O652       Ni675   1.902       .  S
O652        C661   1.267       .  A
O653       Ni657   1.899       .  S
O653       Ni675   1.902       .  S
O653       Ni669   1.915       .  S
O653        H676   0.966       .  S
C654        O671   1.281       .  A
C654        O663   1.278       .  A
C654       C3139   1.482       .  S
O655       Ni674   1.935       .  S
O655        C661   1.273       .  A
O656       Ni674   1.906       .  S
O656        C658   1.269       .  A
Ni657       O660   1.910       .  S
Ni657       O662   1.901       .  S
C658        O668   1.274       .  A
C658       C3066   1.488       .  S
O659       Ni675   1.925       .  S
O659        C665   1.278       .  A
O660        C665   1.276       .  A
C661       C3080   1.476       .  S
O662        C664   1.269       .  A
O663       Ni674   1.919       .  S
C664        O670   1.271       .  A
C664       C3094   1.494       .  S
C665       C3125   1.484       .  S
H666        O667   0.966       .  S
O667       Ni675   1.906       .  S
O667       Ni669   1.901       .  S
O667       Ni674   1.895       .  S
O668       Ni669   1.926       .  S
Ni669       O673   1.921       .  S
Ni669       O671   1.921       .  S
O670       Ni675   1.931       .  S
C672        O673   1.269       .  A
C672       C3447   1.473       .  S
O677       Ni683   1.908       .  S
O677        C698   1.268       .  A
O678       Ni701   1.908       .  S
O678        C687   1.267       .  A
O679       Ni683   1.917       .  S
O679       Ni701   1.915       .  S
O679       Ni695   1.940       .  S
O679        H702   0.966       .  S
C680        O697   1.281   1_556  A
C680        O689   1.277       .  A
C680       C3027   1.484       .  S
O681       Ni700   1.930       .  S
O681        C687   1.270       .  A
O682       Ni700   1.909       .  S
O682        C684   1.270       .  A
Ni683       O686   1.926       .  S
Ni683       O688   1.904       .  S
C684        O694   1.276       .  A
C684       C3993   1.501       .  S
O685       Ni701   1.911       .  S
O685        C691   1.267       .  A
O686        C691   1.269       .  A
C687       C3052   1.472       .  S
O688        C690   1.273       .  A
O689       Ni700   1.917   1_556  S
C690        O696   1.283       .  A
C690       C3167   1.494       .  S
C691       C3038   1.492       .  S
H692        O693   0.966       .  S
O693       Ni701   1.898       .  S
O693       Ni695   1.896       .  S
O693       Ni700   1.906       .  S
O694       Ni695   1.944       .  S
Ni695       O699   1.914       .  S
Ni695       O697   1.921       .  S
O696       Ni701   1.968       .  S
C698        O699   1.270       .  A
C698       C3377   1.470       .  S
O703       Ni709   1.907       .  S
O703        C724   1.264       .  A
O704       Ni727   1.909       .  S
O704        C713   1.271       .  A
O705       Ni709   1.904       .  S
O705       Ni727   1.910       .  S
O705       Ni721   1.928       .  S
O705        H728   0.966       .  S
C706        O723   1.284       .  A
C706        O715   1.281       .  A
C706       C3041   1.483       .  S
O707       Ni726   1.936       .  S
O707        C713   1.275       .  A
O708       Ni726   1.911       .  S
O708        C710   1.270       .  A
Ni709       O712   1.906       .  S
Ni709       O714   1.890       .  S
C710        O720   1.272       .  A
C710       C4032   1.500       .  S
O711       Ni727   1.927       .  S
O711        C717   1.278       .  A
O712        C717   1.271       .  A
C713       C3010   1.478       .  S
O714        C716   1.266       .  A
O715       Ni726   1.921       .  S
C716        O722   1.276       .  A
C716       C3097   1.487       .  S
C717       C3024   1.490       .  S
H718        O719   0.966       .  S
O719       Ni727   1.907       .  S
O719       Ni721   1.893       .  S
O719       Ni726   1.891       .  S
O720       Ni721   1.928       .  S
Ni721       O725   1.922       .  S
Ni721       O723   1.932       .  S
O722       Ni727   1.944       .  S
C724        O725   1.270       .  A
C724       C3349   1.477       .  S
O729       Ni735   1.903       .  S
O729        C750   1.263       .  A
O730       Ni753   1.908       .  S
O730        C739   1.268       .  A
O731       Ni735   1.903       .  S
O731       Ni753   1.901   1_545  S
O731       Ni747   1.923       .  S
O731        H754   0.966       .  S
C732        O749   1.281   1_566  A
C732        O741   1.279       .  A
C732       C2971   1.475       .  S
O733       Ni752   1.931       .  S
O733        C739   1.273       .  A
O734       Ni752   1.909       .  S
O734        C736   1.270       .  A
Ni735       O738   1.912       .  S
Ni735       O740   1.898       .  S
C736        O746   1.273   1_565  A
C736       C2954   1.496       .  S
O737       Ni753   1.923       .  S
O737        C743   1.279   1_565  A
O738        C743   1.275       .  A
C739       C3150   1.476       .  S
O740        C742   1.266       .  A
O741       Ni752   1.920   1_556  S
C742        O748   1.271   1_545  A
C742       C2999   1.474       .  S
C743       C2985   1.486       .  S
H744        O745   0.967       .  S
O745       Ni753   1.910       .  S
O745       Ni747   1.897   1_565  S
O745       Ni752   1.894       .  S
O746       Ni747   1.929       .  S
Ni747       O751   1.916       .  S
Ni747       O749   1.917       .  S
O748       Ni753   1.932       .  S
C750        O751   1.268       .  A
C750       C3290   1.468       .  S
O755       Ni761   1.910       .  S
O755        C776   1.266       .  A
O756       Ni779   1.902       .  S
O756        C765   1.268       .  A
O757       Ni761   1.896       .  S
O757       Ni779   1.897   1_545  S
O757       Ni773   1.916       .  S
O757        H780   0.967       .  S
C758        O775   1.281   1_565  A
C758        O767   1.280       .  A
C758       C2982   1.482   1_565  S
O759       Ni778   1.936       .  S
O759        C765   1.274       .  A
O760       Ni778   1.908       .  S
O760        C762   1.269       .  A
Ni761       O764   1.909       .  S
Ni761       O766   1.904       .  S
C762        O772   1.273   1_565  A
C762       C2926   1.489       .  S
O763       Ni779   1.925       .  S
O763        C769   1.279   1_565  A
O764        C769   1.276       .  A
C765       C3083   1.475       .  S
O766        C768   1.268       .  A
O767       Ni778   1.921       .  S
C768        O774   1.274   1_545  A
C768       C2940   1.489       .  S
C769       C2968   1.479   1_545  S
H770        O771   0.966       .  S
O771       Ni779   1.905       .  S
O771       Ni773   1.901   1_565  S
O771       Ni778   1.895       .  S
O772       Ni773   1.929       .  S
Ni773       O777   1.920       .  S
Ni773       O775   1.919       .  S
O774       Ni779   1.939       .  S
C776        O777   1.269       .  A
C776       C3251   1.475       .  S
O781       Ni787   1.907       .  S
O781        C802   1.265       .  A
O782       Ni805   1.903       .  S
O782        C791   1.269       .  A
O783       Ni787   1.898       .  S
O783       Ni805   1.892   1_545  S
O783       Ni799   1.921       .  S
O783        H806   0.966       .  S
C784        O801   1.279   1_565  A
C784        O793   1.279       .  A
C784       C2898   1.483       .  S
O785       Ni804   1.932       .  S
O785        C791   1.274       .  A
O786       Ni804   1.911       .  S
O786        C788   1.269       .  A
Ni787       O790   1.915       .  S
Ni787       O792   1.898       .  S
C788        O798   1.276   1_565  A
C788       C3839   1.505       .  S
O789       Ni805   1.926       .  S
O789        C795   1.282   1_565  A
O790        C795   1.276       .  A
C791       C3055   1.479       .  S
O792        C794   1.265       .  A
O793       Ni804   1.922       .  S
C794        O800   1.273   1_545  A
C794       C2996   1.488       .  S
C795       C2915   1.492       .  S
H796        O797   0.966       .  S
O797       Ni805   1.915       .  S
O797       Ni799   1.896   1_565  S
O797       Ni804   1.896       .  S
O798       Ni799   1.935       .  S
Ni799       O803   1.911       .  S
Ni799       O801   1.916       .  S
O800       Ni805   1.937       .  S
C802        O803   1.267       .  A
C802       C3195   1.464       .  S
O807       Ni813   1.911       .  S
O807        C828   1.265       .  A
O808       Ni831   1.908       .  S
O808        C817   1.270       .  A
O809       Ni813   1.902       .  S
O809       Ni831   1.899   1_545  S
O809       Ni825   1.917       .  S
O809        H832   0.967       .  S
C810        O827   1.280   1_565  A
C810        O819   1.278       .  A
C810       C2912   1.493   1_565  S
O811       Ni830   1.933       .  S
O811        C817   1.273       .  A
O812       Ni830   1.909       .  S
O812        C814   1.270       .  A
Ni813       O816   1.912       .  S
Ni813       O818   1.902       .  S
C814        O824   1.275   1_565  A
C814       C3794   1.495   1_565  S
O815       Ni831   1.927       .  S
O815        C821   1.282   1_565  A
O816        C821   1.276       .  A
C817       C3013   1.480       .  S
O818        C820   1.266       .  A
O819       Ni830   1.922       .  S
C820        O826   1.272   1_545  A
C820       C2943   1.479       .  S
C821       C2901   1.485       .  S
H822        O823   0.966       .  S
O823       Ni831   1.915       .  S
O823       Ni825   1.901   1_565  S
O823       Ni830   1.898       .  S
O824       Ni825   1.933       .  S
Ni825       O829   1.917       .  S
Ni825       O827   1.921       .  S
O826       Ni831   1.935       .  S
C828        O829   1.268       .  A
C828       C3181   1.470       .  S
O833       Ni839   1.926       .  S
O833        C854   1.272       .  A
O834       Ni857   1.921       .  S
O834        C843   1.268       .  A
O835       Ni839   1.903       .  S
O835       Ni857   1.905   1_545  S
O835       Ni851   1.918       .  S
O835        H858   0.966       .  S
C836        O853   1.279   1_565  A
C836        O845   1.275       .  A
C836       C2859   1.479   1_565  S
O837       Ni856   1.901       .  S
O837        C843   1.262       .  A
O838       Ni856   1.892       .  S
O838        C840   1.265       .  A
Ni839       O842   1.915       .  S
Ni839       O844   1.912       .  S
C840        O850   1.273   1_565  A
C840       C2884   1.480       .  S
O841       Ni857   1.917       .  S
O841        C847   1.278   1_565  A
O842        C847   1.276       .  A
C843       C2828   1.468       .  S
O844        C846   1.271       .  A
O845       Ni856   1.910       .  S
C846        O852   1.273   1_545  A
C846       C2814   1.493       .  S
C847       C2842   1.475       .  S
H848        O849   0.966       .  S
O849       Ni857   1.920       .  S
O849       Ni851   1.898   1_565  S
O849       Ni856   1.901       .  S
O850       Ni851   1.940       .  S
Ni851       O855   1.901       .  S
Ni851       O853   1.924       .  S
O852       Ni857   1.925       .  S
C854        O855   1.268       .  A
C854       C2870   1.473       .  S
O859       Ni865   1.934       .  S
O859        C880   1.274       .  A
O860       Ni883   1.923       .  S
O860        C869   1.271       .  A
O861       Ni865   1.898       .  S
O861       Ni883   1.901   1_545  S
O861       Ni877   1.910       .  S
O861        H884   0.967       .  S
C862        O879   1.279   1_565  A
C862        O871   1.275       .  A
C862       C2845   1.480   1_565  S
O863       Ni882   1.903       .  S
O863        C869   1.265       .  A
O864       Ni882   1.908       .  S
O864        C866   1.270       .  A
Ni865       O868   1.922       .  S
Ni865       O870   1.906       .  S
C866        O876   1.275   1_565  A
C866       C2803   1.498       .  S
O867       Ni883   1.919       .  S
O867        C873   1.281   1_565  A
O868        C873   1.279       .  A
C869       C2772   1.480       .  S
O870        C872   1.269       .  A
O871       Ni882   1.906       .  S
C872        O878   1.274   1_545  A
C872       C2761   1.490       .  S
C873       C2856   1.482       .  S
H874        O875   0.966       .  S
O875       Ni883   1.922       .  S
O875       Ni877   1.895   1_565  S
O875       Ni882   1.899       .  S
O876       Ni877   1.939       .  S
Ni877       O881   1.901       .  S
Ni877       O879   1.925       .  S
O878       Ni883   1.930       .  S
C880        O881   1.268       .  A
C880       C2786   1.473       .  S
O885       Ni891   1.933       .  S
O885        C906   1.273       .  A
O886       Ni909   1.926       .  S
O886        C895   1.271       .  A
O887       Ni891   1.900       .  S
O887       Ni909   1.904   1_545  S
O887       Ni903   1.911       .  S
O887        H910   0.966       .  S
C888        O905   1.281   1_565  A
C888        O897   1.274       .  A
C888       C2730   1.487   1_565  S
O889       Ni908   1.907       .  S
O889        C895   1.265       .  A
O890       Ni908   1.905       .  S
O890        C892   1.269       .  A
Ni891       O894   1.921       .  S
Ni891       O896   1.908       .  S
C892        O902   1.269   1_565  A
C892       C2887   1.490       .  S
O893       Ni909   1.911       .  S
O893        C899   1.277   1_565  A
O894        C899   1.278       .  A
C895       C2702   1.478       .  S
O896        C898   1.270       .  A
O897       Ni908   1.907       .  S
C898        O904   1.276   1_545  A
C898       C2929   1.493       .  S
C899       C2716   1.478       .  S
H900        O901   0.966       .  S
O901       Ni909   1.919       .  S
O901       Ni903   1.898   1_565  S
O901       Ni908   1.901       .  S
O902       Ni903   1.924       .  S
Ni903       O907   1.897       .  S
Ni903       O905   1.933       .  S
O904       Ni909   1.935       .  S
C906        O907   1.266       .  A
C906       C2747   1.463       .  S
O911       Ni917   1.935       .  S
O911        C932   1.274       .  A
O912       Ni935   1.917       .  S
O912        C921   1.269       .  A
O913       Ni917   1.903       .  S
O913       Ni935   1.899   1_545  S
O913       Ni929   1.911       .  S
O913        H936   0.966       .  S
C914        O931   1.276   1_565  A
C914        O923   1.275       .  A
C914       C2719   1.483   1_565  S
O915       Ni934   1.907       .  S
O915        C921   1.265       .  A
O916       Ni934   1.900       .  S
O916        C918   1.267       .  A
Ni917       O920   1.922   1_556  S
Ni917       O922   1.914       .  S
C918        O928   1.275   1_565  A
C918       C2800   1.486       .  S
O919       Ni935   1.923   1_554  S
O919        C925   1.281   1_565  A
O920        C925   1.279       .  A
C921       C2677   1.468       .  S
O922        C924   1.270       .  A
O923       Ni934   1.912       .  S
C924        O930   1.273   1_545  A
C924       C2957   1.492       .  S
C925       C2733   1.484       .  S
H926        O927   0.966       .  S
O927       Ni935   1.917       .  S
O927       Ni929   1.899   1_565  S
O927       Ni934   1.902       .  S
O928       Ni929   1.944       .  S
Ni929       O933   1.904       .  S
Ni929       O931   1.914       .  S
O930       Ni935   1.925       .  S
C932        O933   1.268       .  A
C932       C2688   1.479       .  S
O937       Ni943   1.932       .  S
O937        C958   1.274       .  A
O938       Ni961   1.923       .  S
O938        C947   1.271       .  A
O939       Ni943   1.900       .  S
O939       Ni961   1.897       .  S
O939       Ni955   1.909       .  S
O939        H962   0.966       .  S
C940        O957   1.277       .  A
C940        O949   1.274       .  A
C940       C2649   1.479       .  S
O941       Ni960   1.910       .  S
O941        C947   1.266       .  A
O942       Ni960   1.907       .  S
O942        C944   1.269       .  A
Ni943       O946   1.919       .  S
Ni943       O948   1.912       .  S
C944        O954   1.272       .  A
C944       C2660   1.487       .  S
O945       Ni961   1.919       .  S
O945        C951   1.281       .  A
O946        C951   1.278       .  A
C947       C2621   1.476       .  S
O948        C950   1.271       .  A
O949       Ni960   1.911       .  S
C950        O956   1.274       .  A
C950       C3276   1.495       .  S
C951       C2632   1.480       .  S
H952        O953   0.967       .  S
O953       Ni961   1.923       .  S
O953       Ni955   1.900       .  S
O953       Ni960   1.905       .  S
O954       Ni955   1.929       .  S
Ni955       O959   1.897       .  S
Ni955       O957   1.924       .  S
O956       Ni961   1.928       .  S
C958        O959   1.267       .  A
C958       C2744   1.484       .  S
O963       Ni969   1.936       .  S
O963        C984   1.273       .  A
O964       Ni987   1.912       .  S
O964        C973   1.267       .  A
O965       Ni969   1.898       .  S
O965       Ni987   1.897       .  S
O965       Ni981   1.907       .  S
O965        H988   0.965       .  S
C966        O983   1.277       .  A
C966        O975   1.276       .  A
C966       C2635   1.482       .  S
O967       Ni986   1.909       .  S
O967        C973   1.265       .  A
O968       Ni986   1.899       .  S
O968        C970   1.268       .  A
Ni969       O972   1.923       .  S
Ni969       O974   1.909       .  S
C970        O980   1.273       .  A
C970       C2604   1.482       .  S
O971       Ni987   1.916       .  S
O971        C977   1.280       .  A
O972        C977   1.279       .  A
C973       C2590   1.464       .  S
O974        C976   1.271       .  A
O975       Ni986   1.912       .  S
C976        O982   1.271       .  A
C976       C3237   1.495       .  S
C977       C2646   1.474       .  S
H978        O979   0.967       .  S
O979       Ni987   1.921       .  S
O979       Ni981   1.898       .  S
O979       Ni986   1.902       .  S
O980       Ni981   1.932       .  S
Ni981       O985   1.903       .  S
Ni981       O983   1.918       .  S
O982       Ni987   1.923       .  S
C984        O985   1.268       .  A
C984       C2691   1.475       .  S
O989       Ni995   1.930       .  S
O989       C1010   1.272       .  A
O990      Ni1013   1.919       .  S
O990        C999   1.272       .  A
O991       Ni995   1.909       .  S
O991      Ni1013   1.897       .  S
O991      Ni1007   1.906       .  S
O991       H1014   0.966       .  S
C992       O1009   1.269       .  A
C992       O1001   1.269       .  A
C992       C2576   1.496       .  S
O993      Ni1012   1.903       .  S
O993        C999   1.267       .  A
O994      Ni1012   1.901       .  S
O994        C996   1.271       .  A
Ni995       O998   1.916       .  S
Ni995      O1000   1.913       .  S
C996       O1006   1.280       .  A
C996       C2663   1.484       .  S
O997      Ni1013   1.925       .  S
O997       C1003   1.280       .  A
O998       C1003   1.276       .  A
C999       C2548   1.476       .  S
O1000      C1002   1.271       .  A
O1001     Ni1012   1.929       .  S
C1002      O1008   1.275       .  A
C1002      C2537   1.496       .  S
C1003      C2562   1.493       .  S
H1004      O1005   0.967       .  S
O1005     Ni1013   1.940       .  S
O1005     Ni1007   1.906       .  S
O1005     Ni1012   1.916       .  S
O1006     Ni1007   1.958       .  S
Ni1007     O1011   1.895       .  S
Ni1007     O1009   1.915       .  S
O1008     Ni1013   1.930       .  S
C1010      O1011   1.266       .  A
C1010      C2873   1.471       .  S
O1015     Ni1021   1.938       .  S
O1015      C1036   1.273       .  A
O1016     Ni1039   1.915       .  S
O1016      C1025   1.271       .  A
O1017     Ni1021   1.908       .  S
O1017     Ni1039   1.897       .  S
O1017     Ni1033   1.897       .  S
O1017      H1040   0.966       .  S
C1018      O1035   1.267       .  A
C1018      O1027   1.267       .  A
C1018      C2565   1.488       .  S
O1019     Ni1038   1.899       .  S
O1019      C1025   1.267       .  A
O1020     Ni1038   1.901       .  S
O1020      C1022   1.271       .  A
Ni1021     O1024   1.921   1_556  S
Ni1021     O1026   1.910       .  S
C1022      O1032   1.279       .  A
C1022      C2607   1.480       .  S
O1023     Ni1039   1.929       .  S
O1023      C1029   1.282   1_556  A
O1024      C1029   1.277       .  A
C1025      C2520   1.472       .  S
O1026      C1028   1.271       .  A
O1027     Ni1038   1.924       .  S
C1028      O1034   1.272       .  A
C1028      C2506   1.491       .  S
C1029      C2579   1.490       .  S
H1030      O1031   0.966       .  S
O1031     Ni1039   1.945       .  S
O1031     Ni1033   1.909       .  S
O1031     Ni1038   1.918       .  S
O1032     Ni1033   1.950       .  S
Ni1033     O1037   1.895       .  S
Ni1033     O1035   1.912       .  S
O1034     Ni1039   1.927       .  S
C1036      O1037   1.264       .  A
C1036      C2789   1.474       .  S
O1041     Ni1047   1.937       .  S
O1041      C1062   1.275       .  A
O1042     Ni1065   1.923       .  S
O1042      C1051   1.272       .  A
O1043     Ni1047   1.897       .  S
O1043     Ni1065   1.897       .  S
O1043     Ni1059   1.906       .  S
O1043      H1066   0.967       .  S
C1044      O1061   1.278       .  A
C1044      O1053   1.275       .  A
C1044      C2453   1.487       .  S
O1045     Ni1064   1.911       .  S
O1045      C1051   1.267       .  A
O1046     Ni1064   1.910       .  S
O1046      C1048   1.270       .  A
Ni1047     O1050   1.919       .  S
Ni1047     O1052   1.918       .  S
C1048      O1058   1.269       .  A
C1048      C2492   1.493       .  S
O1049     Ni1065   1.918       .  S
O1049      C1055   1.282       .  A
O1050      C1055   1.278       .  A
C1051      C2705   1.479       .  S
O1052      C1054   1.272       .  A
O1053     Ni1064   1.911       .  S
C1054      O1060   1.277       .  A
C1054      C3108   1.503       .  S
C1055      C2464   1.477       .  S
H1056      O1057   0.966       .  S
O1057     Ni1065   1.925       .  S
O1057     Ni1059   1.901       .  S
O1057     Ni1064   1.907       .  S
O1058     Ni1059   1.927       .  S
Ni1059     O1063   1.892       .  S
Ni1059     O1061   1.927       .  S
O1060     Ni1065   1.940       .  S
C1062      O1063   1.264       .  A
C1062      C2481   1.477       .  S
O1067     Ni1073   1.932       .  S
O1067      C1088   1.273   1_556  A
O1068     Ni1091   1.917       .  S
O1068      C1077   1.269       .  A
O1069     Ni1073   1.901       .  S
O1069     Ni1091   1.898       .  S
O1069     Ni1085   1.911   1_556  S
O1069      H1092   0.966       .  S
C1070      O1087   1.277       .  A
C1070      O1079   1.274       .  A
C1070      C2467   1.478       .  S
O1071     Ni1090   1.907   1_556  S
O1071      C1077   1.265       .  A
O1072     Ni1090   1.902       .  S
O1072      C1074   1.267       .  A
Ni1073     O1076   1.921       .  S
Ni1073     O1078   1.910       .  S
C1074      O1084   1.272       .  A
C1074      C2436   1.476       .  S
O1075     Ni1091   1.926       .  S
O1075      C1081   1.283       .  A
O1076      C1081   1.279       .  A
C1077      C2674   1.474       .  S
O1078      C1080   1.269       .  A
O1079     Ni1090   1.913       .  S
C1080      O1086   1.272       .  A
C1080      C3069   1.487       .  S
C1081      C2450   1.485       .  S
H1082      O1083   0.967       .  S
O1083     Ni1091   1.923   1_554  S
O1083     Ni1085   1.900       .  S
O1083     Ni1090   1.906       .  S
O1084     Ni1085   1.934       .  S
Ni1085     O1089   1.898       .  S
Ni1085     O1087   1.918       .  S
O1086     Ni1091   1.922       .  S
C1088      O1089   1.267       .  A
C1088      C2422   1.479       .  S
O1093     Ni1099   1.924       .  S
O1093      C1114   1.271       .  A
O1094     Ni1117   1.924       .  S
O1094      C1103   1.271       .  A
O1095     Ni1099   1.893       .  S
O1095     Ni1117   1.896       .  S
O1095     Ni1111   1.915       .  S
O1095      H1118   0.966       .  S
C1096      O1113   1.281       .  A
C1096      O1105   1.276       .  A
C1096      C2380   1.483   1_554  S
O1097     Ni1116   1.900       .  S
O1097      C1103   1.264       .  A
O1098     Ni1116   1.903       .  S
O1098      C1100   1.268       .  A
Ni1099     O1102   1.917       .  S
Ni1099     O1104   1.905       .  S
C1100      O1110   1.272       .  A
C1100      C2439   1.486       .  S
O1101     Ni1117   1.926       .  S
O1101      C1107   1.283       .  A
O1102      C1107   1.278       .  A
C1103      C2831   1.473       .  S
O1104      C1106   1.269       .  A
O1105     Ni1116   1.912       .  S
C1106      O1112   1.274       .  A
C1106      C2366   1.490       .  S
C1107      C2394   1.480       .  S
H1108      O1109   0.967       .  S
O1109     Ni1117   1.926       .  S
O1109     Ni1111   1.890       .  S
O1109     Ni1116   1.897       .  S
O1110     Ni1111   1.936       .  S
Ni1111     O1115   1.901       .  S
Ni1111     O1113   1.928       .  S
O1112     Ni1117   1.929       .  S
C1114      O1115   1.269       .  A
C1114      C2408   1.476       .  S
O1119     Ni1125   1.937       .  S
O1119      C1140   1.273       .  A
O1120     Ni1143   1.923       .  S
O1120      C1129   1.270       .  A
O1121     Ni1125   1.896       .  S
O1121     Ni1143   1.901       .  S
O1121     Ni1137   1.909       .  S
O1121      H1144   0.966       .  S
C1122      O1139   1.278       .  A
C1122      O1131   1.274       .  A
C1122      C2397   1.480       .  S
O1123     Ni1142   1.905       .  S
O1123      C1129   1.263       .  A
O1124     Ni1142   1.898       .  S
O1124      C1126   1.265       .  A
Ni1125     O1128   1.922       .  S
Ni1125     O1130   1.904       .  S
C1126      O1136   1.272       .  A
C1126      C2495   1.477       .  S
O1127     Ni1143   1.923       .  S
O1127      C1133   1.281       .  A
O1128      C1133   1.279       .  A
C1129      C2775   1.470       .  S
O1130      C1132   1.267       .  A
O1131     Ni1142   1.908       .  S
C1132      O1138   1.274       .  A
C1132      C2338   1.495       .  S
C1133      C2383   1.481       .  S
H1134      O1135   0.966       .  S
O1135     Ni1143   1.922       .  S
O1135     Ni1137   1.904       .  S
O1135     Ni1142   1.902       .  S
O1136     Ni1137   1.934       .  S
Ni1137     O1141   1.901       .  S
Ni1137     O1139   1.926       .  S
O1138     Ni1143   1.928       .  S
C1140      O1141   1.268       .  A
C1140      C2352   1.473       .  S
O1145     Ni1151   1.931       .  S
O1145      C1166   1.271       .  A
O1146     Ni1169   1.922       .  S
O1146      C1155   1.270       .  A
O1147     Ni1151   1.898       .  S
O1147     Ni1169   1.899       .  S
O1147     Ni1163   1.909       .  S
O1147      H1170   0.966       .  S
C1148      O1165   1.278       .  A
C1148      O1157   1.277       .  A
C1148      C2296   1.488   1_554  S
O1149     Ni1168   1.908       .  S
O1149      C1155   1.267       .  A
O1150     Ni1168   1.906       .  S
O1150      C1152   1.269       .  A
Ni1151     O1154   1.917       .  S
Ni1151     O1156   1.905       .  S
C1152      O1162   1.271       .  A
C1152      C2327   1.485       .  S
O1153     Ni1169   1.920       .  S
O1153      C1159   1.282       .  A
O1154      C1159   1.277       .  A
C1155      C2618   1.479       .  S
O1156      C1158   1.269       .  A
O1157     Ni1168   1.909       .  S
C1158      O1164   1.272       .  A
C1158      C3489   1.490       .  S
C1159      C2310   1.485       .  S
H1160      O1161   0.966       .  S
O1161     Ni1169   1.919       .  S
O1161     Ni1163   1.895       .  S
O1161     Ni1168   1.896       .  S
O1162     Ni1163   1.930       .  S
Ni1163     O1167   1.899       .  S
Ni1163     O1165   1.924       .  S
O1164     Ni1169   1.921       .  S
C1166      O1167   1.266       .  A
C1166      C2425   1.464       .  S
O1171     Ni1177   1.940       .  S
O1171      C1192   1.275       .  A
O1172     Ni1195   1.920       .  S
O1172      C1181   1.270       .  A
O1173     Ni1177   1.899       .  S
O1173     Ni1195   1.899       .  S
O1173     Ni1189   1.905       .  S
O1173      H1196   0.966       .  S
C1174      O1191   1.280       .  A
C1174      O1183   1.274       .  A
C1174      C2313   1.488       .  S
O1175     Ni1194   1.901       .  S
O1175      C1181   1.263       .  A
O1176     Ni1194   1.903       .  S
O1176      C1178   1.268       .  A
Ni1177     O1180   1.929       .  S
Ni1177     O1182   1.908       .  S
C1178      O1188   1.273       .  A
C1178      C2285   1.495       .  S
O1179     Ni1195   1.914       .  S
O1179      C1185   1.281       .  A
O1180      C1185   1.280       .  A
C1181      C2593   1.476       .  S
O1182      C1184   1.270       .  A
O1183     Ni1194   1.907       .  S
C1184      O1190   1.270       .  A
C1184      C3433   1.497       .  S
C1185      C2299   1.488       .  S
H1186      O1187   0.967       .  S
O1187     Ni1195   1.922       .  S
O1187     Ni1189   1.893       .  S
O1187     Ni1194   1.898       .  S
O1188     Ni1189   1.935       .  S
Ni1189     O1193   1.893       .  S
Ni1189     O1191   1.929       .  S
O1190     Ni1195   1.928       .  S
C1192      O1193   1.266       .  A
C1192      C2478   1.465       .  S
O1197     Ni1203   1.934       .  S
O1197      C1218   1.273       .  A
O1198     Ni1221   1.917       .  S
O1198      C1207   1.270       .  A
O1199     Ni1203   1.895       .  S
O1199     Ni1221   1.898       .  S
O1199     Ni1215   1.904       .  S
O1199      H1222   0.966       .  S
C1200      O1217   1.276       .  A
C1200      O1209   1.274       .  A
C1200      C2254   1.486       .  S
O1201     Ni1220   1.909       .  S
O1201      C1207   1.264       .  A
O1202     Ni1220   1.900       .  S
O1202      C1204   1.268       .  A
Ni1203     O1206   1.918       .  S
Ni1203     O1208   1.906       .  S
C1204      O1214   1.272       .  A
C1204      C2282   1.483       .  S
O1205     Ni1221   1.918       .  S
O1205      C1211   1.280       .  A
O1206      C1211   1.279       .  A
C1207      C2551   1.479       .  S
O1208      C1210   1.270       .  A
O1209     Ni1220   1.907       .  S
C1210      O1216   1.274       .  A
C1210      C2240   1.498       .  S
C1211      C2268   1.486       .  S
H1212      O1213   0.966       .  S
O1213     Ni1221   1.916       .  S
O1213     Ni1215   1.905       .  S
O1213     Ni1220   1.907       .  S
O1214     Ni1215   1.935       .  S
Ni1215     O1219   1.901       .  S
Ni1215     O1217   1.916       .  S
O1216     Ni1221   1.933       .  S
C1218      O1219   1.267       .  A
C1218      C2355   1.476       .  S
O1223     Ni1229   1.922       .  S
O1223      C1244   1.271   1_556  A
O1224     Ni1247   1.909       .  S
O1224      C1233   1.269       .  A
O1225     Ni1229   1.898       .  S
O1225     Ni1247   1.895       .  S
O1225     Ni1241   1.913   1_556  S
O1225      H1248   0.966       .  S
C1226      O1243   1.277       .  A
C1226      O1235   1.275       .  A
C1226      C2271   1.482       .  S
O1227     Ni1246   1.913       .  S
O1227      C1233   1.267   1_554  A
O1228     Ni1246   1.901       .  S
O1228      C1230   1.267       .  A
Ni1229     O1232   1.910       .  S
Ni1229     O1234   1.916       .  S
C1230      O1240   1.272       .  A
C1230      C2324   1.480       .  S
O1231     Ni1247   1.922       .  S
O1231      C1237   1.279       .  A
O1232      C1237   1.277       .  A
C1233      C2523   1.479       .  S
O1234      C1236   1.272       .  A
O1235     Ni1246   1.915       .  S
C1236      O1242   1.274       .  A
C1236      C2229   1.502       .  S
C1237      C2257   1.483       .  S
H1238      O1239   0.966       .  S
O1239     Ni1247   1.914   1_554  S
O1239     Ni1241   1.901       .  S
O1239     Ni1246   1.905       .  S
O1240     Ni1241   1.939       .  S
Ni1241     O1245   1.902       .  S
Ni1241     O1243   1.914       .  S
O1242     Ni1247   1.930       .  S
C1244      O1245   1.268       .  A
C1244      C2411   1.466       .  S
O1249     Ni1255   1.912       .  S
O1249      C1270   1.267       .  A
O1250     Ni1273   1.893       .  S
O1250      C1259   1.266       .  A
O1251     Ni1255   1.900       .  S
O1251     Ni1273   1.896       .  S
O1251     Ni1267   1.919       .  S
O1251      H1274   0.967       .  S
C1252      O1269   1.280   1_556  A
C1252      O1261   1.277       .  A
C1252      C2173   1.477       .  S
O1253     Ni1272   1.931       .  S
O1253      C1259   1.273       .  A
O1254     Ni1272   1.917       .  S
O1254      C1256   1.273       .  A
Ni1255     O1258   1.912       .  S
Ni1255     O1260   1.907       .  S
C1256      O1266   1.273       .  A
C1256      C4105   1.501       .  S
O1257     Ni1273   1.927       .  S
O1257      C1263   1.278       .  A
O1258      C1263   1.275       .  A
C1259      C2198   1.461       .  S
O1260      C1262   1.269       .  A
O1261     Ni1272   1.917   1_556  S
C1262      O1268   1.273       .  A
C1262      C2212   1.489       .  S
C1263      C2184   1.480       .  S
H1264      O1265   0.966       .  S
O1265     Ni1273   1.912       .  S
O1265     Ni1267   1.897       .  S
O1265     Ni1272   1.900       .  S
O1266     Ni1267   1.927       .  S
Ni1267     O1271   1.914       .  S
Ni1267     O1269   1.919       .  S
O1268     Ni1273   1.934       .  S
C1270      O1271   1.268       .  A
C1270      C2156   1.478       .  S
O1275     Ni1281   1.901       .  S
O1275      C1296   1.264       .  A
O1276     Ni1299   1.901       .  S
O1276      C1285   1.267       .  A
O1277     Ni1281   1.898       .  S
O1277     Ni1299   1.893       .  S
O1277     Ni1293   1.924       .  S
O1277      H1300   0.966       .  S
C1278      O1295   1.282       .  A
C1278      O1287   1.279       .  A
C1278      C2187   1.478       .  S
O1279     Ni1298   1.935       .  S
O1279      C1285   1.275       .  A
O1280     Ni1298   1.915       .  S
O1280      C1282   1.271       .  A
Ni1281     O1284   1.908       .  S
Ni1281     O1286   1.903       .  S
C1282      O1292   1.273       .  A
C1282      C4147   1.496       .  S
O1283     Ni1299   1.929       .  S
O1283      C1289   1.281       .  A
O1284      C1289   1.274       .  A
C1285      C2128   1.475       .  S
O1286      C1288   1.269       .  A
O1287     Ni1298   1.921       .  S
C1288      O1294   1.271       .  A
C1288      C2142   1.493       .  S
C1289      C2170   1.483       .  S
H1290      O1291   0.966       .  S
O1291     Ni1299   1.913       .  S
O1291     Ni1293   1.896       .  S
O1291     Ni1298   1.896       .  S
O1292     Ni1293   1.921       .  S
Ni1293     O1297   1.922       .  S
Ni1293     O1295   1.923       .  S
O1294     Ni1299   1.928       .  S
C1296      O1297   1.270       .  A
C1296      C2117   1.472       .  S
O1301     Ni1307   1.909       .  S
O1301      C1322   1.266       .  A
O1302     Ni1325   1.898       .  S
O1302      C1311   1.267       .  A
O1303     Ni1307   1.908       .  S
O1303     Ni1325   1.903       .  S
O1303     Ni1319   1.919       .  S
O1303      H1326   0.967       .  S
C1304      O1321   1.280       .  A
C1304      O1313   1.276       .  A
C1304      C2072   1.478       .  S
O1305     Ni1324   1.923       .  S
O1305      C1311   1.271       .  A
O1306     Ni1324   1.913       .  S
O1306      C1308   1.271       .  A
Ni1307     O1310   1.918       .  S
Ni1307     O1312   1.898       .  S
C1308      O1318   1.274       .  A
C1308      C2243   1.500       .  S
O1309     Ni1325   1.916       .  S
O1309      C1315   1.276       .  A
O1310      C1315   1.274       .  A
C1311      C2103   1.473       .  S
O1312      C1314   1.266       .  A
O1313     Ni1324   1.909       .  S
C1314      O1320   1.272       .  A
C1314      C2215   1.481       .  S
C1315      C2089   1.487       .  S
H1316      O1317   0.966       .  S
O1317     Ni1325   1.910       .  S
O1317     Ni1319   1.898       .  S
O1317     Ni1324   1.902       .  S
O1318     Ni1319   1.928       .  S
Ni1319     O1323   1.915       .  S
Ni1319     O1321   1.923       .  S
O1320     Ni1325   1.940       .  S
C1322      O1323   1.269       .  A
C1322      C2058   1.474       .  S
O1327     Ni1333   1.907       .  S
O1327      C1348   1.264       .  A
O1328     Ni1351   1.906       .  S
O1328      C1337   1.270       .  A
O1329     Ni1333   1.902       .  S
O1329     Ni1351   1.902       .  S
O1329     Ni1345   1.919       .  S
O1329      H1352   0.966       .  S
C1330      O1347   1.281       .  A
C1330      O1339   1.281       .  A
C1330      C2086   1.487       .  S
O1331     Ni1350   1.934       .  S
O1331      C1337   1.275       .  A
O1332     Ni1350   1.914       .  S
O1332      C1334   1.271       .  A
Ni1333     O1336   1.907       .  S
Ni1333     O1338   1.893       .  S
C1334      O1344   1.272       .  A
C1334      C2226   1.500       .  S
O1335     Ni1351   1.919       .  S
O1335      C1341   1.277       .  A
O1336      C1341   1.274       .  A
C1337      C2044   1.476       .  S
O1338      C1340   1.266       .  A
O1339     Ni1350   1.918       .  S
C1340      O1346   1.276       .  A
C1340      C2145   1.486       .  S
C1341      C2075   1.479       .  S
H1342      O1343   0.966       .  S
O1343     Ni1351   1.904       .  S
O1343     Ni1345   1.891       .  S
O1343     Ni1350   1.893       .  S
O1344     Ni1345   1.925       .  S
Ni1345     O1349   1.912       .  S
Ni1345     O1347   1.920       .  S
O1346     Ni1351   1.941       .  S
C1348      O1349   1.268       .  A
C1348      C2030   1.472       .  S
O1353     Ni1359   1.906       .  S
O1353      C1374   1.266       .  A
O1354     Ni1377   1.898       .  S
O1354      C1363   1.268       .  A
O1355     Ni1359   1.900       .  S
O1355     Ni1377   1.892       .  S
O1355     Ni1371   1.921       .  S
O1355      H1378   0.967       .  S
C1356      O1373   1.283       .  A
C1356      O1365   1.278       .  A
C1356      C1991   1.485       .  S
O1357     Ni1376   1.930       .  S
O1357      C1363   1.275       .  A
O1358     Ni1376   1.917       .  S
O1358      C1360   1.271       .  A
Ni1359     O1362   1.917       .  S
Ni1359     O1364   1.899       .  S
C1360      O1370   1.270       .  A
C1360      C3587   1.498       .  S
O1361     Ni1377   1.919       .  S
O1361      C1367   1.279       .  A
O1362      C1367   1.276       .  A
C1363      C2201   1.482       .  S
O1364      C1366   1.267       .  A
O1365     Ni1376   1.918       .  S
C1366      O1372   1.273       .  A
C1366      C2016   1.484       .  S
C1367      C2002   1.486       .  S
H1368      O1369   0.967       .  S
O1369     Ni1377   1.913       .  S
O1369     Ni1371   1.894       .  S
O1369     Ni1376   1.898       .  S
O1370     Ni1371   1.922       .  S
Ni1371     O1375   1.907       .  S
Ni1371     O1373   1.929       .  S
O1372     Ni1377   1.940       .  S
C1374      O1375   1.266       .  A
C1374      C1977   1.478       .  S
O1379     Ni1385   1.910       .  S
O1379      C1400   1.266       .  A
O1380     Ni1403   1.904       .  S
O1380      C1389   1.268       .  A
O1381     Ni1385   1.903       .  S
O1381     Ni1403   1.902       .  S
O1381     Ni1397   1.923       .  S
O1381      H1404   0.966       .  S
C1382      O1399   1.282       .  A
C1382      O1391   1.278       .  A
C1382      C2005   1.486       .  S
O1383     Ni1402   1.933       .  S
O1383      C1389   1.273       .  A
O1384     Ni1402   1.913       .  S
O1384      C1386   1.270       .  A
Ni1385     O1388   1.911       .  S
Ni1385     O1390   1.906       .  S
C1386      O1396   1.273       .  A
C1386      C3573   1.498       .  S
O1387     Ni1403   1.928       .  S
O1387      C1393   1.280       .  A
O1388      C1393   1.274       .  A
C1389      C2131   1.472       .  S
O1390      C1392   1.270       .  A
O1391     Ni1402   1.920       .  S
C1392      O1398   1.273       .  A
C1392      C1960   1.496       .  S
C1393      C1988   1.485       .  S
H1394      O1395   0.966       .  S
O1395     Ni1403   1.909       .  S
O1395     Ni1397   1.897       .  S
O1395     Ni1402   1.900       .  S
O1396     Ni1397   1.929       .  S
Ni1397     O1401   1.921       .  S
Ni1397     O1399   1.921       .  S
O1398     Ni1403   1.936       .  S
C1400      O1401   1.270       .  A
C1400      C1946   1.481       .  S
O1405     Ni1411   1.908       .  S
O1405      C1426   1.265       .  A
O1406     Ni1429   1.891       .  S
O1406      C1415   1.266       .  A
O1407     Ni1411   1.905       .  S
O1407     Ni1429   1.898       .  S
O1407     Ni1423   1.926       .  S
O1407      H1430   0.966       .  S
C1408      O1425   1.281       .  A
C1408      O1417   1.276       .  A
C1408      C1918   1.476       .  S
O1409     Ni1428   1.926       .  S
O1409      C1415   1.272       .  A
O1410     Ni1428   1.916       .  S
O1410      C1412   1.271       .  A
Ni1411     O1414   1.916       .  S
Ni1411     O1416   1.901       .  S
C1412      O1422   1.270       .  A
C1412      C2509   1.493       .  S
O1413     Ni1429   1.919       .  S
O1413      C1419   1.275       .  A
O1414      C1419   1.274       .  A
C1415      C2100   1.462       .  S
O1416      C1418   1.267       .  A
O1417     Ni1428   1.918   1_556  S
C1418      O1424   1.275       .  A
C1418      C2019   1.495       .  S
C1419      C1932   1.489       .  S
H1420      O1421   0.967       .  S
O1421     Ni1429   1.910       .  S
O1421     Ni1423   1.894       .  S
O1421     Ni1428   1.904       .  S
O1422     Ni1423   1.920       .  S
Ni1423     O1427   1.909       .  S
Ni1423     O1425   1.919   1_554  S
O1424     Ni1429   1.939       .  S
C1426      O1427   1.266       .  A
C1426      C1907   1.460       .  S
O1431     Ni1437   1.905       .  S
O1431      C1452   1.264       .  A
O1432     Ni1455   1.898       .  S
O1432      C1441   1.267       .  A
O1433     Ni1437   1.904       .  S
O1433     Ni1455   1.904       .  S
O1433     Ni1449   1.921       .  S
O1433      H1456   0.966       .  S
C1434      O1451   1.280       .  A
C1434      O1443   1.280       .  A
C1434      C1935   1.481       .  S
O1435     Ni1454   1.943       .  S
O1435      C1441   1.276       .  A
O1436     Ni1454   1.912       .  S
O1436      C1438   1.271       .  A
Ni1437     O1440   1.907       .  S
Ni1437     O1442   1.902       .  S
C1438      O1448   1.273       .  A
C1438      C2534   1.497       .  S
O1439     Ni1455   1.926       .  S
O1439      C1445   1.278       .  A
O1440      C1445   1.273       .  A
C1441      C2047   1.480       .  S
O1442      C1444   1.268       .  A
O1443     Ni1454   1.927       .  S
C1444      O1450   1.273       .  A
C1444      C1963   1.482       .  S
C1445      C1921   1.481       .  S
H1446      O1447   0.967       .  S
O1447     Ni1455   1.908       .  S
O1447     Ni1449   1.903       .  S
O1447     Ni1454   1.901       .  S
O1448     Ni1449   1.929       .  S
Ni1449     O1453   1.920       .  S
Ni1449     O1451   1.918       .  S
O1450     Ni1455   1.937       .  S
C1452      O1453   1.270       .  A
C1452      C1893   1.475       .  S
O1457     Ni1463   1.908   1_554  S
O1457      C1478   1.266       .  A
O1458     Ni1481   1.897       .  S
O1458      C1467   1.265       .  A
O1459     Ni1463   1.901       .  S
O1459     Ni1481   1.901       .  S
O1459     Ni1475   1.920   1_556  S
O1459      H1482   0.966       .  S
C1460      O1477   1.281       .  A
C1460      O1469   1.279       .  A
C1460      C1851   1.478       .  S
O1461     Ni1480   1.939       .  S
O1461      C1467   1.273   1_554  A
O1462     Ni1480   1.907       .  S
O1462      C1464   1.269       .  A
Ni1463     O1466   1.906       .  S
Ni1463     O1468   1.907       .  S
C1464      O1474   1.274       .  A
C1464      C3937   1.495       .  S
O1465     Ni1481   1.920       .  S
O1465      C1471   1.275       .  A
O1466      C1471   1.274       .  A
C1467      C1862   1.467       .  S
O1468      C1470   1.270       .  A
O1469     Ni1480   1.921       .  S
C1470      O1476   1.273       .  A
C1470      C1879   1.493       .  S
C1471      C1834   1.481       .  S
H1472      O1473   0.967       .  S
O1473     Ni1481   1.902   1_554  S
O1473     Ni1475   1.902       .  S
O1473     Ni1480   1.898       .  S
O1474     Ni1475   1.930       .  S
Ni1475     O1479   1.921       .  S
Ni1475     O1477   1.919       .  S
O1476     Ni1481   1.931       .  S
C1478      O1479   1.271       .  A
C1478      C2159   1.473       .  S
O1483     Ni1489   1.900       .  S
O1483      C1504   1.263       .  A
O1484     Ni1507   1.898       .  S
O1484      C1493   1.267       .  A
O1485     Ni1489   1.897       .  S
O1485     Ni1507   1.894       .  S
O1485     Ni1501   1.927       .  S
O1485      H1508   0.966       .  S
C1486      O1503   1.283       .  A
C1486      O1495   1.278       .  A
C1486      C1837   1.478       .  S
O1487     Ni1506   1.931       .  S
O1487      C1493   1.273       .  A
O1488     Ni1506   1.911       .  S
O1488      C1490   1.270       .  A
Ni1489     O1492   1.910       .  S
Ni1489     O1494   1.894       .  S
C1490      O1500   1.272       .  A
C1490      C3906   1.495       .  S
O1491     Ni1507   1.925       .  S
O1491      C1497   1.279       .  A
O1492      C1497   1.276       .  A
C1493      C1806   1.466       .  S
O1494      C1496   1.267       .  A
O1495     Ni1506   1.916       .  S
C1496      O1502   1.272       .  A
C1496      C1820   1.489       .  S
C1497      C1848   1.486       .  S
H1498      O1499   0.966       .  S
O1499     Ni1507   1.909       .  S
O1499     Ni1501   1.894       .  S
O1499     Ni1506   1.895       .  S
O1500     Ni1501   1.923       .  S
Ni1501     O1505   1.924       .  S
Ni1501     O1503   1.921       .  S
O1502     Ni1507   1.931       .  S
C1504      O1505   1.270       .  A
C1504      C2114   1.473       .  S
O1509     Ni1515   1.909       .  S
O1509      C1530   1.265       .  A
O1510     Ni1533   1.902       .  S
O1510      C1519   1.268       .  A
O1511     Ni1515   1.907       .  S
O1511     Ni1533   1.905       .  S
O1511     Ni1527   1.929       .  S
O1511      H1534   0.967       .  S
C1512      O1529   1.283       .  A
C1512      O1521   1.278       .  A
C1512      C1778   1.474       .  S
O1513     Ni1532   1.919       .  S
O1513      C1519   1.271       .  A
O1514     Ni1532   1.904       .  S
O1514      C1516   1.267       .  A
Ni1515     O1518   1.911       .  S
Ni1515     O1520   1.898       .  S
C1516      O1526   1.272       .  A
C1516      C2369   1.490       .  S
O1517     Ni1533   1.927       .  S
O1517      C1523   1.279       .  A
O1518      C1523   1.273       .  A
C1519      C1792   1.477       .  S
O1520      C1522   1.268       .  A
O1521     Ni1532   1.914       .  S
C1522      O1528   1.271       .  A
C1522      C1823   1.478       .  S
C1523      C1764   1.486       .  S
H1524      O1525   0.966       .  S
O1525     Ni1533   1.913       .  S
O1525     Ni1527   1.889       .  S
O1525     Ni1532   1.893       .  S
O1526     Ni1527   1.925       .  S
Ni1527     O1531   1.908       .  S
Ni1527     O1529   1.931       .  S
O1528     Ni1533   1.926       .  S
C1530      O1531   1.267       .  A
C1530      C2061   1.467       .  S
O1535     Ni1541   1.903       .  S
O1535      C1556   1.267       .  A
O1536     Ni1559   1.903       .  S
O1536      C1545   1.269       .  A
O1537     Ni1541   1.907       .  S
O1537     Ni1559   1.905       .  S
O1537     Ni1553   1.932       .  S
O1537      H1560   0.966       .  S
C1538      O1555   1.283       .  A
C1538      O1547   1.276       .  A
C1538      C1767   1.489       .  S
O1539     Ni1558   1.922       .  S
O1539      C1545   1.271       .  A
O1540     Ni1558   1.911       .  S
O1540      C1542   1.268       .  A
Ni1541     O1544   1.920   1_556  S
Ni1541     O1546   1.897       .  S
C1542      O1552   1.274       .  A
C1542      C2341   1.492       .  S
O1543     Ni1559   1.922       .  S
O1543      C1549   1.273   1_556  A
O1544      C1549   1.269       .  A
C1545      C1750   1.472       .  S
O1546      C1548   1.270       .  A
O1547     Ni1558   1.911       .  S
C1548      O1554   1.281       .  A
C1548      C1876   1.488       .  S
C1549      C1781   1.486       .  S
H1550      O1551   0.965       .  S
O1551     Ni1559   1.909       .  S
O1551     Ni1553   1.893       .  S
O1551     Ni1558   1.901       .  S
O1552     Ni1553   1.925       .  S
Ni1553     O1557   1.914       .  S
Ni1553     O1555   1.934       .  S
O1554     Ni1559   1.960       .  S
C1556      O1557   1.272       .  A
C1556      C2033   1.473       .  S
O1561     Ni1567   1.897       .  S
O1561      C1582   1.265       .  A
O1562     Ni1585   1.894       .  S
O1562      C1571   1.264       .  A
O1563     Ni1567   1.917       .  S
O1563     Ni1585   1.905   1_545  S
O1563     Ni1579   1.937       .  S
O1563      H1586   0.966       .  S
C1564      O1581   1.278   1_565  A
C1564      O1573   1.277       .  A
C1564      C1725   1.483   1_565  S
O1565     Ni1584   1.937       .  S
O1565      C1571   1.273       .  A
O1566     Ni1584   1.912       .  S
O1566      C1568   1.271       .  A
Ni1567     O1570   1.917       .  S
Ni1567     O1572   1.904       .  S
C1568      O1578   1.272   1_565  A
C1568      C3741   1.500   1_565  S
O1569     Ni1585   1.914       .  S
O1569      C1575   1.268   1_565  A
O1570      C1575   1.265       .  A
C1571      C1809   1.475       .  S
O1572      C1574   1.273       .  A
O1573     Ni1584   1.922       .  S
C1574      O1580   1.281   1_545  A
C1574      C1739   1.489       .  S
C1575      C1708   1.486   1_545  S
H1576      O1577   0.967       .  S
O1577     Ni1585   1.900       .  S
O1577     Ni1579   1.899   1_565  S
O1577     Ni1584   1.910       .  S
O1578     Ni1579   1.929       .  S
Ni1579     O1583   1.906       .  S
Ni1579     O1581   1.920       .  S
O1580     Ni1585   1.959       .  S
C1582      O1583   1.268       .  A
C1582      C1974   1.460       .  S
O1587     Ni1593   1.909       .  S
O1587      C1608   1.265       .  A
O1588     Ni1611   1.898       .  S
O1588      C1597   1.266       .  A
O1589     Ni1593   1.914       .  S
O1589     Ni1611   1.909   1_545  S
O1589     Ni1605   1.929       .  S
O1589      H1612   0.967       .  S
C1590      O1607   1.282   1_565  A
C1590      O1599   1.277       .  A
C1590      C1711   1.479       .  S
O1591     Ni1610   1.935       .  S
O1591      C1597   1.274       .  A
O1592     Ni1610   1.912       .  S
O1592      C1594   1.269       .  A
Ni1593     O1596   1.915       .  S
Ni1593     O1598   1.902       .  S
C1594      O1604   1.273   1_565  A
C1594      C3713   1.497       .  S
O1595     Ni1611   1.919       .  S
O1595      C1601   1.275   1_566  A
O1596      C1601   1.273   1_556  A
C1597      C1865   1.483       .  S
O1598      C1600   1.267       .  A
O1599     Ni1610   1.916       .  S
C1600      O1606   1.271   1_545  A
C1600      C1694   1.479       .  S
C1601      C1722   1.488       .  S
H1602      O1603   0.966       .  S
O1603     Ni1611   1.907       .  S
O1603     Ni1605   1.901   1_565  S
O1603     Ni1610   1.903       .  S
O1604     Ni1605   1.925       .  S
Ni1605     O1609   1.923       .  S
Ni1605     O1607   1.926       .  S
O1606     Ni1611   1.932       .  S
C1608      O1609   1.270       .  A
C1608      C1949   1.474       .  S
O1613     Ni1619   1.903   1_554  S
O1613      C1634   1.264       .  A
O1614     Ni1637   1.897       .  S
O1614      C1623   1.267       .  A
O1615     Ni1619   1.896       .  S
O1615     Ni1637   1.892   1_545  S
O1615     Ni1631   1.920   1_556  S
O1615      H1638   0.966       .  S
C1616      O1633   1.281   1_565  A
C1616      O1625   1.278       .  A
C1616      C1680   1.487       .  S
O1617     Ni1636   1.926       .  S
O1617      C1623   1.273   1_554  A
O1618     Ni1636   1.913       .  S
O1618      C1620   1.271       .  A
Ni1619     O1622   1.912       .  S
Ni1619     O1624   1.895       .  S
C1620      O1630   1.272   1_565  A
C1620      C2817   1.494       .  S
O1621     Ni1637   1.925       .  S
O1621      C1627   1.281   1_565  A
O1622      C1627   1.276       .  A
C1623      C1753   1.472       .  S
O1624      C1626   1.267       .  A
O1625     Ni1636   1.917       .  S
C1626      O1632   1.272   1_545  A
C1626      C1697   1.489       .  S
C1627      C1669   1.480       .  S
H1628      O1629   0.966       .  S
O1629     Ni1637   1.915   1_554  S
O1629     Ni1631   1.895   1_565  S
O1629     Ni1636   1.897       .  S
O1630     Ni1631   1.926       .  S
Ni1631     O1635   1.917       .  S
Ni1631     O1633   1.921       .  S
O1632     Ni1637   1.939       .  S
C1634      O1635   1.269       .  A
C1634      C1904   1.477       .  S
O1639     Ni1645   1.910       .  S
O1639      C1660   1.266       .  A
O1640     Ni1663   1.900       .  S
O1640      C1649   1.267       .  A
O1641     Ni1645   1.899       .  S
O1641     Ni1663   1.898   1_545  S
O1641     Ni1657   1.920       .  S
O1641      H1664   0.966       .  S
C1642      O1659   1.280   1_565  A
C1642      O1651   1.277       .  A
C1642      C1666   1.483   1_565  S
O1643     Ni1662   1.925       .  S
O1643      C1649   1.270       .  A
O1644     Ni1662   1.908       .  S
O1644      C1646   1.268       .  A
Ni1645     O1648   1.908       .  S
Ni1645     O1650   1.905       .  S
C1646      O1656   1.270   1_565  A
C1646      C2758   1.487       .  S
O1647     Ni1663   1.927       .  S
O1647      C1653   1.278   1_565  A
O1648      C1653   1.275       .  A
C1649      C1795   1.460       .  S
O1650      C1652   1.270       .  A
O1651     Ni1662   1.919       .  S
C1652      O1658   1.274   1_545  A
C1652      C1736   1.493       .  S
C1653      C1683   1.486       .  S
H1654      O1655   0.966       .  S
O1655     Ni1663   1.911       .  S
O1655     Ni1657   1.899   1_565  S
O1655     Ni1662   1.904       .  S
O1656     Ni1657   1.920       .  S
Ni1657     O1661   1.912       .  S
Ni1657     O1659   1.918       .  S
O1658     Ni1663   1.935       .  S
C1660      O1661   1.267       .  A
C1660      C1890   1.469       .  S
C1665      C1666   1.401       .  A
C1665      C1670   1.403       .  A
C1665      H1672   1.084       .  S
C1666      C1667   1.419   1_545  A
C1667      C1668   1.404       .  A
C1667      N1674   1.439       .  S
C1668      C1669   1.400   1_565  A
C1668      H1673   1.084       .  S
C1669      C1670   1.417       .  A
C1670      N1671   1.439       .  S
N1671      H1675   1.046       .  S
N1671      H1676   1.046       .  S
N1674      H1677   1.046       .  S
N1674      H1678   1.046       .  S
C1679      C1680   1.410       .  A
C1679      C1684   1.407       .  A
C1679      H1686   1.083       .  S
C1680      C1681   1.409   1_565  A
C1681      C1682   1.398       .  A
C1681      N1688   1.433       .  S
C1682      C1683   1.408       .  A
C1682      H1687   1.084       .  S
C1683      C1684   1.413   1_545  A
C1684      N1685   1.438       .  S
N1685      H1689   1.046       .  S
N1685      H1690   1.046       .  S
N1688      H1691   1.046       .  S
N1688      H1692   1.045       .  S
C1693      C1694   1.407   1_565  A
C1693      C1698   1.408       .  A
C1693      H1700   1.084       .  S
C1694      C1695   1.412       .  A
C1695      C1696   1.392       .  A
C1695      N1702   1.434       .  S
C1696      C1697   1.406       .  A
C1696      H1701   1.084       .  S
C1697      C1698   1.418   1_545  A
C1698      N1699   1.432       .  S
N1699      H1703   1.045       .  S
N1699      H1704   1.045   1_556  S
N1702      H1705   1.046       .  S
N1702      H1706   1.044       .  S
C1707      C1708   1.411   1_545  A
C1707      C1712   1.401       .  A
C1707      H1714   1.083       .  S
C1708      C1709   1.410       .  A
C1709      C1710   1.402       .  A
C1709      N1716   1.433       .  S
C1710      C1711   1.408       .  A
C1710      H1715   1.084       .  S
C1711      C1712   1.405   1_565  A
C1712      N1713   1.432       .  S
N1713      H1717   1.046       .  S
N1713      H1718   1.045       .  S
N1716      H1719   1.046       .  S
N1716      H1720   1.046       .  S
C1721      C1722   1.408       .  A
C1721      C1726   1.407       .  A
C1721      H1728   1.084       .  S
C1722      C1723   1.415   1_545  A
C1723      C1724   1.404       .  A
C1723      N1730   1.439       .  S
C1724      C1725   1.404   1_565  A
C1724      H1729   1.084       .  S
C1725      C1726   1.413       .  A
C1726      N1727   1.439       .  S
N1727      H1731   1.046       .  S
N1727      H1732   1.046       .  S
N1730      H1733   1.046       .  S
N1730      H1734   1.046       .  S
C1735      C1736   1.408       .  A
C1735      C1740   1.401       .  A
C1735      H1742   1.084       .  S
C1736      C1737   1.413   1_545  A
C1737      C1738   1.410       .  A
C1737      N1744   1.432       .  S
C1738      C1739   1.409   1_565  A
C1738      H1743   1.084       .  S
C1739      C1740   1.409       .  A
C1740      N1741   1.433       .  S
N1741      H1745   1.046       .  S
N1741      H1746   1.046       .  S
N1744      H1747   1.045       .  S
N1744      H1748   1.046       .  S
C1749      C1750   1.404       .  A
C1749      C1754   1.397       .  A
C1749      H1756   1.084       .  S
C1750      C1751   1.411       .  A
C1751      C1752   1.395       .  A
C1751      N1758   1.431   1_556  S
C1752      C1753   1.403       .  A
C1752      H1757   1.084   1_556  S
C1753      C1754   1.414       .  A
C1754      N1755   1.433       .  S
N1755      H1759   1.044       .  S
N1755      H1760   1.046       .  S
N1758      H1761   1.045       .  S
N1758      H1762   1.045       .  S
C1763      C1764   1.404       .  A
C1763      C1768   1.406       .  A
C1763      H1770   1.084       .  S
C1764      C1765   1.416       .  A
C1765      C1766   1.406       .  A
C1765      N1772   1.438       .  S
C1766      C1767   1.405       .  A
C1766      H1771   1.084       .  S
C1767      C1768   1.417       .  A
C1768      N1769   1.438       .  S
N1769      H1773   1.046       .  S
N1769      H1774   1.046       .  S
N1772      H1775   1.046       .  S
N1772      H1776   1.046       .  S
C1777      C1778   1.405       .  A
C1777      C1782   1.401       .  A
C1777      H1784   1.084       .  S
C1778      C1779   1.405       .  A
C1779      C1780   1.406       .  A
C1779      N1786   1.438       .  S
C1780      C1781   1.413       .  A
C1780      H1785   1.083       .  S
C1781      C1782   1.408       .  A
C1782      N1783   1.431       .  S
N1783      H1787   1.045       .  S
N1783      H1788   1.046       .  S
N1786      H1789   1.045       .  S
N1786      H1790   1.046       .  S
C1791      C1792   1.406       .  A
C1791      C1796   1.396       .  A
C1791      H1798   1.084       .  S
C1792      C1793   1.411       .  A
C1793      C1794   1.401       .  A
C1793      N1800   1.433       .  S
C1794      C1795   1.400       .  A
C1794      H1799   1.084       .  S
C1795      C1796   1.413       .  A
C1796      N1797   1.440       .  S
N1797      H1801   1.046       .  S
N1797      H1802   1.043       .  S
N1800      H1803   1.046       .  S
N1800      H1804   1.046       .  S
C1805      C1806   1.400       .  A
C1805      C1810   1.401       .  A
C1805      H1812   1.084       .  S
C1806      C1807   1.411       .  A
C1807      C1808   1.398       .  A
C1807      N1814   1.433       .  S
C1808      C1809   1.405       .  A
C1808      H1813   1.084       .  S
C1809      C1810   1.410       .  A
C1810      N1811   1.432       .  S
N1811      H1815   1.046       .  S
N1811      H1816   1.046       .  S
N1814      H1817   1.046       .  S
N1814      H1818   1.045       .  S
C1819      C1820   1.407       .  A
C1819      C1824   1.394       .  A
C1819      H1826   1.083       .  S
C1820      C1821   1.415       .  A
C1821      C1822   1.409       .  A
C1821      N1828   1.432       .  S
C1822      C1823   1.406       .  A
C1822      H1827   1.084       .  S
C1823      C1824   1.407       .  A
C1824      N1825   1.434       .  S
N1825      H1829   1.046       .  S
N1825      H1830   1.046       .  S
N1828      H1831   1.046       .  S
N1828      H1832   1.046       .  S
C1833      C1834   1.404       .  A
C1833      C1838   1.396       .  A
C1833      H1840   1.084       .  S
C1834      C1835   1.413       .  A
C1835      C1836   1.405       .  A
C1835      N1842   1.433       .  S
C1836      C1837   1.407       .  A
C1836      H1841   1.084       .  S
C1837      C1838   1.409       .  A
C1838      N1839   1.432       .  S
N1839      H1843   1.045       .  S
N1839      H1844   1.046       .  S
N1842      H1845   1.046       .  S
N1842      H1846   1.046       .  S
C1847      C1848   1.408       .  A
C1847      C1852   1.405       .  A
C1847      H1854   1.083       .  S
C1848      C1849   1.416       .  A
C1849      C1850   1.403       .  A
C1849      N1856   1.439       .  S
C1850      C1851   1.404       .  A
C1850      H1855   1.084       .  S
C1851      C1852   1.411       .  A
C1852      N1853   1.438       .  S
N1853      H1857   1.046       .  S
N1853      H1858   1.046       .  S
N1856      H1859   1.046       .  S
N1856      H1860   1.046       .  S
C1861      C1862   1.399       .  A
C1861      C1866   1.405       .  A
C1861      H1868   1.084       .  S
C1862      C1863   1.410       .  A
C1863      C1864   1.398       .  A
C1863      N1870   1.433       .  S
C1864      C1865   1.406       .  A
C1864      H1869   1.084       .  S
C1865      C1866   1.417       .  A
C1866      N1867   1.438       .  S
N1867      H1871   1.046       .  S
N1867      H1872   1.046       .  S
N1870      H1873   1.046       .  S
N1870      H1874   1.045       .  S
C1875      C1876   1.407       .  A
C1875      C1880   1.409       .  A
C1875      H1882   1.084       .  S
C1876      C1877   1.411       .  A
C1877      C1878   1.400       .  A
C1877      N1884   1.433       .  S
C1878      C1879   1.407       .  A
C1878      H1883   1.084       .  S
C1879      C1880   1.414       .  A
C1880      N1881   1.432   1_556  S
N1881      H1885   1.046       .  S
N1881      H1886   1.046   1_554  S
N1884      H1887   1.046       .  S
N1884      H1888   1.046       .  S
C1889      C1890   1.398       .  A
C1889      C1894   1.400       .  A
C1889      H1896   1.084       .  S
C1890      C1891   1.416       .  A
C1891      C1892   1.398       .  A
C1891      N1898   1.433       .  S
C1892      C1893   1.400       .  A
C1892      H1897   1.084       .  S
C1893      C1894   1.415       .  A
C1894      N1895   1.433       .  S
N1895      H1899   1.046       .  S
N1895      H1900   1.046       .  S
N1898      H1901   1.046       .  S
N1898      H1902   1.044       .  S
C1903      C1904   1.410       .  A
C1903      C1908   1.395       .  A
C1903      H1910   1.084   1_554  S
C1904      C1905   1.408       .  A
C1905      C1906   1.400       .  A
C1905      N1912   1.432       .  S
C1906      C1907   1.402       .  A
C1906      H1911   1.084       .  S
C1907      C1908   1.405       .  A
C1908      N1909   1.433   1_554  S
N1909      H1913   1.046   1_556  S
N1909      H1914   1.045       .  S
N1912      H1915   1.046       .  S
N1912      H1916   1.045       .  S
C1917      C1918   1.401       .  A
C1917      C1922   1.399       .  A
C1917      H1924   1.084       .  S
C1918      C1919   1.412       .  A
C1919      C1920   1.404       .  A
C1919      N1926   1.433       .  S
C1920      C1921   1.405       .  A
C1920      H1925   1.084       .  S
C1921      C1922   1.413       .  A
C1922      N1923   1.433       .  S
N1923      H1927   1.046       .  S
N1923      H1928   1.046       .  S
N1926      H1929   1.046       .  S
N1926      H1930   1.046       .  S
C1931      C1932   1.408       .  A
C1931      C1936   1.406       .  A
C1931      H1938   1.083       .  S
C1932      C1933   1.417       .  A
C1933      C1934   1.405       .  A
C1933      N1940   1.438       .  S
C1934      C1935   1.403       .  A
C1934      H1939   1.084       .  S
C1935      C1936   1.412       .  A
C1936      N1937   1.438       .  S
N1937      H1941   1.046       .  S
N1937      H1942   1.045       .  S
N1940      H1943   1.046       .  S
N1940      H1944   1.046       .  S
C1945      C1946   1.410       .  A
C1945      C1950   1.406       .  A
C1945      H1952   1.084       .  S
C1946      C1947   1.407       .  A
C1947      C1948   1.403       .  A
C1947      N1954   1.433       .  S
C1948      C1949   1.406       .  A
C1948      H1953   1.084       .  S
C1949      C1950   1.406       .  A
C1950      N1951   1.437       .  S
N1951      H1955   1.046       .  S
N1951      H1956   1.045       .  S
N1954      H1957   1.046       .  S
N1954      H1958   1.045       .  S
C1959      C1960   1.408       .  A
C1959      C1964   1.399       .  A
C1959      H1966   1.083       .  S
C1960      C1961   1.416       .  A
C1961      C1962   1.412       .  A
C1961      N1968   1.432       .  S
C1962      C1963   1.405       .  A
C1962      H1967   1.084       .  S
C1963      C1964   1.407       .  A
C1964      N1965   1.433       .  S
N1965      H1969   1.046       .  S
N1965      H1970   1.046       .  S
N1968      H1971   1.046       .  S
N1968      H1972   1.046       .  S
C1973      C1974   1.403       .  A
C1973      C1978   1.396       .  A
C1973      H1980   1.084       .  S
C1974      C1975   1.399       .  A
C1975      C1976   1.396       .  A
C1975      N1982   1.433       .  S
C1976      C1977   1.410       .  A
C1976      H1981   1.084       .  S
C1977      C1978   1.416       .  A
C1978      N1979   1.433       .  S
N1979      H1983   1.045       .  S
N1979      H1984   1.045       .  S
N1982      H1985   1.045       .  S
N1982      H1986   1.046       .  S
C1987      C1988   1.404       .  A
C1987      C1992   1.406       .  A
C1987      H1994   1.084       .  S
C1988      C1989   1.415       .  A
C1989      C1990   1.404       .  A
C1989      N1996   1.438       .  S
C1990      C1991   1.404       .  A
C1990      H1995   1.084       .  S
C1991      C1992   1.416       .  A
C1992      N1993   1.438       .  S
N1993      H1997   1.046       .  S
N1993      H1998   1.046       .  S
N1996      H1999   1.046       .  S
N1996      H2000   1.046       .  S
C2001      C2002   1.402       .  A
C2001      C2006   1.400   1_554  A
C2001      H2008   1.080       .  S
C2002      C2003   1.414       .  A
C2003      C2004   1.402   1_554  A
C2003      N2010   1.433       .  S
C2004      C2005   1.405       .  A
C2004      H2009   1.084       .  S
C2005      C2006   1.415       .  A
C2006      N2007   1.433       .  S
N2007      H2011   1.046       .  S
N2007      H2012   1.046       .  S
N2010      H2013   1.046       .  S
N2010      H2014   1.046       .  S
C2015      C2016   1.400       .  A
C2015      C2020   1.396       .  A
C2015      H2022   1.085       .  S
C2016      C2017   1.415       .  A
C2017      C2018   1.407       .  A
C2017      N2024   1.432       .  S
C2018      C2019   1.409       .  A
C2018      H2023   1.084       .  S
C2019      C2020   1.424       .  A
C2020      N2021   1.434       .  S
N2021      H2025   1.045       .  S
N2021      H2026   1.046       .  S
N2024      H2027   1.046       .  S
N2024      H2028   1.045       .  S
C2029      C2030   1.397       .  A
C2029      C2034   1.400       .  A
C2029      H2036   1.084       .  S
C2030      C2031   1.416       .  A
C2031      C2032   1.404       .  A
C2031      N2038   1.438       .  S
C2032      C2033   1.399       .  A
C2032      H2037   1.084       .  S
C2033      C2034   1.417       .  A
C2034      N2035   1.439       .  S
N2035      H2039   1.046       .  S
N2035      H2040   1.045       .  S
N2038      H2041   1.046       .  S
N2038      H2042   1.046       .  S
C2043      C2044   1.403       .  A
C2043      C2048   1.406       .  A
C2043      H2050   1.084       .  S
C2044      C2045   1.413       .  A
C2045      C2046   1.399       .  A
C2045      N2052   1.433       .  S
C2046      C2047   1.404       .  A
C2046      H2051   1.084       .  S
C2047      C2048   1.413       .  A
C2048      N2049   1.438       .  S
N2049      H2053   1.046       .  S
N2049      H2054   1.046       .  S
N2052      H2055   1.046       .  S
N2052      H2056   1.045       .  S
C2057      C2058   1.408       .  A
C2057      C2062   1.395       .  A
C2057      H2064   1.084       .  S
C2058      C2059   1.408       .  A
C2059      C2060   1.404       .  A
C2059      N2066   1.436       .  S
C2060      C2061   1.405       .  A
C2060      H2065   1.084       .  S
C2061      C2062   1.407       .  A
C2062      N2063   1.433       .  S
N2063      H2067   1.046       .  S
N2063      H2068   1.045       .  S
N2066      H2069   1.045       .  S
N2066      H2070   1.046       .  S
C2071      C2072   1.408       .  A
C2071      C2076   1.400       .  A
C2071      H2078   1.084       .  S
C2072      C2073   1.407       .  A
C2073      C2074   1.400       .  A
C2073      N2080   1.432       .  S
C2074      C2075   1.408       .  A
C2074      H2079   1.084       .  S
C2075      C2076   1.407       .  A
C2076      N2077   1.433       .  S
N2077      H2081   1.046       .  S
N2077      H2082   1.046       .  S
N2080      H2083   1.045       .  S
N2080      H2084   1.045       .  S
C2085      C2086   1.407       .  A
C2085      C2090   1.399   1_556  A
C2085      H2092   1.083       .  S
C2086      C2087   1.413       .  A
C2087      C2088   1.402   1_556  A
C2087      N2094   1.433       .  S
C2088      C2089   1.407       .  A
C2088      H2093   1.084       .  S
C2089      C2090   1.409       .  A
C2090      N2091   1.429       .  S
N2091      H2095   1.046       .  S
N2091      H2096   1.046       .  S
N2094      H2097   1.045       .  S
N2094      H2098   1.046       .  S
C2099      C2100   1.401       .  A
C2099      C2104   1.401       .  A
C2099      H2106   1.083       .  S
C2100      C2101   1.407       .  A
C2101      C2102   1.399       .  A
C2101      N2108   1.439       .  S
C2102      C2103   1.401       .  A
C2102      H2107   1.077       .  S
C2103      C2104   1.410       .  A
C2104      N2105   1.432       .  S
N2105      H2109   1.046       .  S
N2105      H2110   1.046       .  S
N2108      H2111   1.046       .  S
N2108      H2112   1.046       .  S
C2113      C2114   1.408       .  A
C2113      C2118   1.397       .  A
C2113      H2120   1.084       .  S
C2114      C2115   1.403       .  A
C2115      C2116   1.401       .  A
C2115      N2122   1.431       .  S
C2116      C2117   1.407       .  A
C2116      H2121   1.084       .  S
C2117      C2118   1.408       .  A
C2118      N2119   1.431       .  S
N2119      H2123   1.045       .  S
N2119      H2124   1.045       .  S
N2122      H2125   1.046       .  S
N2122      H2126   1.046       .  S
C2127      C2128   1.403       .  A
C2127      C2132   1.401       .  A
C2127      H2134   1.084       .  S
C2128      C2129   1.416       .  A
C2129      C2130   1.400       .  A
C2129      N2136   1.432       .  S
C2130      C2131   1.402       .  A
C2130      H2135   1.084       .  S
C2131      C2132   1.407       .  A
C2132      N2133   1.432       .  S
N2133      H2137   1.046       .  S
N2133      H2138   1.046       .  S
N2136      H2139   1.045       .  S
N2136      H2140   1.044       .  S
C2141      C2142   1.406       .  A
C2141      C2146   1.397       .  A
C2141      H2148   1.083       .  S
C2142      C2143   1.416       .  A
C2143      C2144   1.409       .  A
C2143      N2150   1.432       .  S
C2144      C2145   1.405       .  A
C2144      H2149   1.084       .  S
C2145      C2146   1.412       .  A
C2146      N2147   1.434       .  S
N2147      H2151   1.046       .  S
N2147      H2152   1.046       .  S
N2150      H2153   1.045       .  S
N2150      H2154   1.045       .  S
C2155      C2156   1.408       .  A
C2155      C2160   1.404       .  A
C2155      H2162   1.084       .  S
C2156      C2157   1.412       .  A
C2157      C2158   1.399       .  A
C2157      N2164   1.433   1_554  S
C2158      C2159   1.406       .  A
C2158      H2163   1.084   1_554  S
C2159      C2160   1.406       .  A
C2160      N2161   1.437       .  S
N2161      H2165   1.046       .  S
N2161      H2166   1.046       .  S
N2164      H2167   1.046       .  S
N2164      H2168   1.045       .  S
C2169      C2170   1.405       .  A
C2169      C2174   1.400       .  A
C2169      H2176   1.084       .  S
C2170      C2171   1.418       .  A
C2171      C2172   1.405       .  A
C2171      N2178   1.438       .  S
C2172      C2173   1.402       .  A
C2172      H2177   1.084       .  S
C2173      C2174   1.410       .  A
C2174      N2175   1.433       .  S
N2175      H2179   1.046       .  S
N2175      H2180   1.046       .  S
N2178      H2181   1.046       .  S
N2178      H2182   1.046       .  S
C2183      C2184   1.404       .  A
C2183      C2188   1.401       .  A
C2183      H2190   1.084       .  S
C2184      C2185   1.412       .  A
C2185      C2186   1.404       .  A
C2185      N2192   1.432       .  S
C2186      C2187   1.404       .  A
C2186      H2191   1.084       .  S
C2187      C2188   1.410       .  A
C2188      N2189   1.432       .  S
N2189      H2193   1.046       .  S
N2189      H2194   1.045       .  S
N2192      H2195   1.046       .  S
N2192      H2196   1.046       .  S
C2197      C2198   1.397       .  A
C2197      C2202   1.401       .  A
C2197      H2204   1.084       .  S
C2198      C2199   1.407       .  A
C2199      C2200   1.396       .  A
C2199      N2206   1.432       .  S
C2200      C2201   1.408       .  A
C2200      H2205   1.084       .  S
C2201      C2202   1.415       .  A
C2202      N2203   1.431       .  S
N2203      H2207   1.045       .  S
N2203      H2208   1.046       .  S
N2206      H2209   1.044       .  S
N2206      H2210   1.046       .  S
C2211      C2212   1.407       .  A
C2211      C2216   1.407       .  A
C2211      H2218   1.084       .  S
C2212      C2213   1.414       .  A
C2213      C2214   1.400       .  A
C2213      N2220   1.433       .  S
C2214      C2215   1.401       .  A
C2214      H2219   1.084       .  S
C2215      C2216   1.416       .  A
C2216      N2217   1.433       .  S
N2217      H2221   1.046       .  S
N2217      H2222   1.045       .  S
N2220      H2223   1.046       .  S
N2220      H2224   1.046       .  S
C2225      C2226   1.410       .  A
C2225      C2230   1.408       .  A
C2225      H2232   1.083       .  S
C2226      C2227   1.415       .  A
C2227      C2228   1.407       .  A
C2227      N2234   1.433       .  S
C2228      C2229   1.410       .  A
C2228      H2233   1.083       .  S
C2229      C2230   1.415       .  A
C2230      N2231   1.432       .  S
N2231      H2235   1.046       .  S
N2231      H2236   1.045       .  S
N2234      H2237   1.046       .  S
N2234      H2238   1.046       .  S
C2239      C2240   1.410       .  A
C2239      C2244   1.408       .  A
C2239      H2246   1.083       .  S
C2240      C2241   1.414       .  A
C2241      C2242   1.410       .  A
C2241      N2248   1.438       .  S
C2242      C2243   1.411       .  A
C2242      H2247   1.083       .  S
C2243      C2244   1.416       .  A
C2244      N2245   1.438       .  S
N2245      H2249   1.046       .  S
N2245      H2250   1.046       .  S
N2248      H2251   1.046       .  S
N2248      H2252   1.046       .  S
C2253      C2254   1.410       .  A
C2253      C2258   1.401       .  A
C2253      H2260   1.083       .  S
C2254      C2255   1.413       .  A
C2255      C2256   1.402       .  A
C2255      N2262   1.439       .  S
C2256      C2257   1.408       .  A
C2256      H2261   1.083       .  S
C2257      C2258   1.411       .  A
C2258      N2259   1.438       .  S
N2259      H2263   1.046       .  S
N2259      H2264   1.045       .  S
N2262      H2265   1.046       .  S
N2262      H2266   1.046       .  S
C2267      C2268   1.408       .  A
C2267      C2272   1.403       .  A
C2267      H2274   1.083       .  S
C2268      C2269   1.412       .  A
C2269      C2270   1.400       .  A
C2269      N2276   1.433       .  S
C2270      C2271   1.407       .  A
C2270      H2275   1.084       .  S
C2271      C2272   1.412       .  A
C2272      N2273   1.439       .  S
N2273      H2277   1.046       .  S
N2273      H2278   1.045       .  S
N2276      H2279   1.046       .  S
N2276      H2280   1.046       .  S
C2281      C2282   1.406       .  A
C2281      C2286   1.411       .  A
C2281      H2288   1.084       .  S
C2282      C2283   1.410       .  A
C2283      C2284   1.400       .  A
C2283      N2290   1.439       .  S
C2284      C2285   1.408       .  A
C2284      H2289   1.083       .  S
C2285      C2286   1.415       .  A
C2286      N2287   1.432       .  S
N2287      H2291   1.046       .  S
N2287      H2292   1.046       .  S
N2290      H2293   1.046       .  S
N2290      H2294   1.046       .  S
C2295      C2296   1.406       .  A
C2295      C2300   1.397       .  A
C2295      H2302   1.083       .  S
C2296      C2297   1.415       .  A
C2297      C2298   1.407       .  A
C2297      N2304   1.438       .  S
C2298      C2299   1.409       .  A
C2298      H2303   1.083       .  S
C2299      C2300   1.409       .  A
C2300      N2301   1.429       .  S
N2301      H2305   1.045       .  S
N2301      H2306   1.046       .  S
N2304      H2307   1.046       .  S
N2304      H2308   1.046       .  S
C2309      C2310   1.404       .  A
C2309      C2314   1.402       .  A
C2309      H2316   1.084       .  S
C2310      C2311   1.415       .  A
C2311      C2312   1.401       .  A
C2311      N2318   1.433       .  S
C2312      C2313   1.405       .  A
C2312      H2317   1.084       .  S
C2313      C2314   1.416       .  A
C2314      N2315   1.433       .  S
N2315      H2319   1.046       .  S
N2315      H2320   1.046       .  S
N2318      H2321   1.045       .  S
N2318      H2322   1.046       .  S
C2323      C2324   1.401       .  A
C2323      C2328   1.403       .  A
C2323      H2330   1.084   1_554  S
C2324      C2325   1.415       .  A
C2325      C2326   1.405       .  A
C2325      N2332   1.432       .  S
C2326      C2327   1.406       .  A
C2326      H2331   1.084       .  S
C2327      C2328   1.415       .  A
C2328      N2329   1.439   1_554  S
N2329      H2333   1.046       .  S
N2329      H2334   1.046       .  S
N2332      H2335   1.045       .  S
N2332      H2336   1.045       .  S
C2337      C2338   1.409       .  A
C2337      C2342   1.402       .  A
C2337      H2344   1.084       .  S
C2338      C2339   1.421       .  A
C2339      C2340   1.399       .  A
C2339      N2346   1.433       .  S
C2340      C2341   1.406       .  A
C2340      H2345   1.084       .  S
C2341      C2342   1.419       .  A
C2342      N2343   1.433       .  S
N2343      H2347   1.045       .  S
N2343      H2348   1.045       .  S
N2346      H2349   1.046       .  S
N2346      H2350   1.044       .  S
C2351      C2352   1.401       .  A
C2351      C2356   1.397       .  A
C2351      H2358   1.084       .  S
C2352      C2353   1.409       .  A
C2353      C2354   1.404       .  A
C2353      N2360   1.433       .  S
C2354      C2355   1.405       .  A
C2354      H2359   1.084       .  S
C2355      C2356   1.415       .  A
C2356      N2357   1.433       .  S
N2357      H2361   1.045       .  S
N2357      H2362   1.045       .  S
N2360      H2363   1.046       .  S
N2360      H2364   1.046       .  S
C2365      C2366   1.407       .  A
C2365      C2370   1.405       .  A
C2365      H2372   1.084       .  S
C2366      C2367   1.413       .  A
C2367      C2368   1.404       .  A
C2367      N2374   1.433       .  S
C2368      C2369   1.407       .  A
C2368      H2373   1.084       .  S
C2369      C2370   1.413       .  A
C2370      N2371   1.432       .  S
N2371      H2375   1.046       .  S
N2371      H2376   1.046       .  S
N2374      H2377   1.046       .  S
N2374      H2378   1.046       .  S
C2379      C2380   1.404       .  A
C2379      C2384   1.403       .  A
C2379      H2386   1.084       .  S
C2380      C2381   1.415       .  A
C2381      C2382   1.406       .  A
C2381      N2388   1.438       .  S
C2382      C2383   1.404       .  A
C2382      H2387   1.084       .  S
C2383      C2384   1.413       .  A
C2384      N2385   1.438       .  S
N2385      H2389   1.046       .  S
N2385      H2390   1.046       .  S
N2388      H2391   1.046       .  S
N2388      H2392   1.046       .  S
C2393      C2394   1.403       .  A
C2393      C2398   1.403       .  A
C2393      H2400   1.084       .  S
C2394      C2395   1.413       .  A
C2395      C2396   1.404       .  A
C2395      N2402   1.433       .  S
C2396      C2397   1.404       .  A
C2396      H2401   1.084       .  S
C2397      C2398   1.415       .  A
C2398      N2399   1.438       .  S
N2399      H2403   1.046       .  S
N2399      H2404   1.046       .  S
N2402      H2405   1.046       .  S
N2402      H2406   1.046       .  S
C2407      C2408   1.403       .  A
C2407      C2412   1.401       .  A
C2407      H2414   1.084       .  S
C2408      C2409   1.412       .  A
C2409      C2410   1.399       .  A
C2409      N2416   1.433       .  S
C2410      C2411   1.399       .  A
C2410      H2415   1.084       .  S
C2411      C2412   1.418       .  A
C2412      N2413   1.440   1_554  S
N2413      H2417   1.046       .  S
N2413      H2418   1.042       .  S
N2416      H2419   1.046       .  S
N2416      H2420   1.046       .  S
C2421      C2422   1.406       .  A
C2421      C2426   1.397       .  A
C2421      H2428   1.084       .  S
C2422      C2423   1.413       .  A
C2423      C2424   1.401       .  A
C2423      N2430   1.432       .  S
C2424      C2425   1.399       .  A
C2424      H2429   1.084       .  S
C2425      C2426   1.409       .  A
C2426      N2427   1.433       .  S
N2427      H2431   1.045       .  S
N2427      H2432   1.046       .  S
N2430      H2433   1.046       .  S
N2430      H2434   1.046   1_554  S
C2435      C2436   1.406       .  A
C2435      C2440   1.406       .  A
C2435      H2442   1.084       .  S
C2436      C2437   1.410       .  A
C2437      C2438   1.396       .  A
C2437      N2444   1.433   1_554  S
C2438      C2439   1.406       .  A
C2438      H2443   1.084       .  S
C2439      C2440   1.417       .  A
C2440      N2441   1.432       .  S
N2441      H2445   1.046       .  S
N2441      H2446   1.045       .  S
N2444      H2447   1.044       .  S
N2444      H2448   1.046       .  S
C2449      C2450   1.407       .  A
C2449      C2454   1.408       .  A
C2449      H2456   1.084       .  S
C2450      C2451   1.412       .  A
C2451      C2452   1.403       .  A
C2451      N2458   1.437       .  S
C2452      C2453   1.405       .  A
C2452      H2457   1.083       .  S
C2453      C2454   1.415       .  A
C2454      N2455   1.439       .  S
N2455      H2459   1.046       .  S
N2455      H2460   1.046       .  S
N2458      H2461   1.044       .  S
N2458      H2462   1.046       .  S
C2463      C2464   1.403       .  A
C2463      C2468   1.403       .  A
C2463      H2470   1.084       .  S
C2464      C2465   1.412       .  A
C2465      C2466   1.401       .  A
C2465      N2472   1.433       .  S
C2466      C2467   1.403       .  A
C2466      H2471   1.084       .  S
C2467      C2468   1.414       .  A
C2468      N2469   1.438       .  S
N2469      H2473   1.046       .  S
N2469      H2474   1.046       .  S
N2472      H2475   1.046       .  S
N2472      H2476   1.046       .  S
C2477      C2478   1.399       .  A
C2477      C2482   1.396       .  A
C2477      H2484   1.084       .  S
C2478      C2479   1.408       .  A
C2479      C2480   1.403       .  A
C2479      N2486   1.438       .  S
C2480      C2481   1.405       .  A
C2480      H2485   1.084       .  S
C2481      C2482   1.418       .  A
C2482      N2483   1.433       .  S
N2483      H2487   1.045       .  S
N2483      H2488   1.045       .  S
N2486      H2489   1.046       .  S
N2486      H2490   1.046       .  S
C2491      C2492   1.407       .  A
C2491      C2496   1.395       .  A
C2491      H2498   1.084       .  S
C2492      C2493   1.422       .  A
C2493      C2494   1.405       .  A
C2493      N2500   1.432       .  S
C2494      C2495   1.403       .  A
C2494      H2499   1.084       .  S
C2495      C2496   1.413       .  A
C2496      N2497   1.434       .  S
N2497      H2501   1.044       .  S
N2497      H2502   1.046       .  S
N2500      H2503   1.045       .  S
N2500      H2504   1.045       .  S
C2505      C2506   1.407   1_554  A
C2505      C2510   1.407       .  A
C2505      H2512   1.083       .  S
C2506      C2507   1.414       .  A
C2507      C2508   1.409       .  A
C2507      N2514   1.438       .  S
C2508      C2509   1.408   1_556  A
C2508      H2513   1.083       .  S
C2509      C2510   1.415       .  A
C2510      N2511   1.438       .  S
N2511      H2515   1.046       .  S
N2511      H2516   1.046       .  S
N2514      H2517   1.046       .  S
N2514      H2518   1.046       .  S
C2519      C2520   1.406       .  A
C2519      C2524   1.398       .  A
C2519      H2526   1.084       .  S
C2520      C2521   1.407       .  A
C2521      C2522   1.405       .  A
C2521      N2528   1.438   1_556  S
C2522      C2523   1.410       .  A
C2522      H2527   1.084   1_556  S
C2523      C2524   1.407       .  A
C2524      N2525   1.432       .  S
N2525      H2529   1.045       .  S
N2525      H2530   1.045       .  S
N2528      H2531   1.046   1_554  S
N2528      H2532   1.046       .  S
C2533      C2534   1.410       .  A
C2533      C2538   1.408       .  A
C2533      H2540   1.084       .  S
C2534      C2535   1.413       .  A
C2535      C2536   1.406       .  A
C2535      N2542   1.432       .  S
C2536      C2537   1.408       .  A
C2536      H2541   1.084       .  S
C2537      C2538   1.413       .  A
C2538      N2539   1.432       .  S
N2539      H2543   1.046       .  S
N2539      H2544   1.046       .  S
N2542      H2545   1.046       .  S
N2542      H2546   1.046       .  S
C2547      C2548   1.399       .  A
C2547      C2552   1.404       .  A
C2547      H2554   1.083       .  S
C2548      C2549   1.416       .  A
C2549      C2550   1.402       .  A
C2549      N2556   1.438       .  S
C2550      C2551   1.399       .  A
C2550      H2555   1.084       .  S
C2551      C2552   1.417       .  A
C2552      N2553   1.433       .  S
N2553      H2557   1.046       .  S
N2553      H2558   1.046       .  S
N2556      H2559   1.046       .  S
N2556      H2560   1.046       .  S
C2561      C2562   1.412       .  A
C2561      C2566   1.407       .  A
C2561      H2568   1.083       .  S
C2562      C2563   1.411       .  A
C2563      C2564   1.401       .  A
C2563      N2570   1.433       .  S
C2564      C2565   1.408       .  A
C2564      H2569   1.084       .  S
C2565      C2566   1.413       .  A
C2566      N2567   1.439       .  S
N2567      H2571   1.046       .  S
N2567      H2572   1.046       .  S
N2570      H2573   1.046       .  S
N2570      H2574   1.046       .  S
C2575      C2576   1.413       .  A
C2575      C2580   1.408       .  A
C2575      H2582   1.083       .  S
C2576      C2577   1.414       .  A
C2577      C2578   1.406       .  A
C2577      N2584   1.438       .  S
C2578      C2579   1.409       .  A
C2578      H2583   1.083       .  S
C2579      C2580   1.409       .  A
C2580      N2581   1.438       .  S
N2581      H2585   1.046       .  S
N2581      H2586   1.046       .  S
N2584      H2587   1.046       .  S
N2584      H2588   1.046       .  S
C2589      C2590   1.401       .  A
C2589      C2594   1.398       .  A
C2589      H2596   1.084       .  S
C2590      C2591   1.407       .  A
C2591      C2592   1.398       .  A
C2591      N2598   1.432       .  S
C2592      C2593   1.409       .  A
C2592      H2597   1.084       .  S
C2593      C2594   1.405       .  A
C2594      N2595   1.428       .  S
N2595      H2599   1.046       .  S
N2595      H2600   1.046       .  S
N2598      H2601   1.045       .  S
N2598      H2602   1.046       .  S
C2603      C2604   1.406       .  A
C2603      C2608   1.396       .  A
C2603      H2610   1.084       .  S
C2604      C2605   1.414       .  A
C2605      C2606   1.402       .  A
C2605      N2612   1.432       .  S
C2606      C2607   1.407       .  A
C2606      H2611   1.084       .  S
C2607      C2608   1.413       .  A
C2608      N2609   1.434       .  S
N2609      H2613   1.044       .  S
N2609      H2614   1.046       .  S
N2612      H2615   1.045       .  S
N2612      H2616   1.045       .  S
C2617      C2618   1.407       .  A
C2617      C2622   1.396       .  A
C2617      H2624   1.084       .  S
C2618      C2619   1.410       .  A
C2619      C2620   1.408       .  A
C2619      N2626   1.438       .  S
C2620      C2621   1.407       .  A
C2620      H2625   1.084       .  S
C2621      C2622   1.408       .  A
C2622      N2623   1.430       .  S
N2623      H2627   1.043       .  S
N2623      H2628   1.046       .  S
N2626      H2629   1.046       .  S
N2626      H2630   1.046       .  S
C2631      C2632   1.405       .  A
C2631      C2636   1.405   1_554  A
C2631      H2638   1.084       .  S
C2632      C2633   1.411       .  A
C2633      C2634   1.401   1_554  A
C2633      N2640   1.436       .  S
C2634      C2635   1.404       .  A
C2634      H2639   1.083       .  S
C2635      C2636   1.415       .  A
C2636      N2637   1.439       .  S
N2637      H2641   1.046       .  S
N2637      H2642   1.046       .  S
N2640      H2643   1.046       .  S
N2640      H2644   1.046       .  S
C2645      C2646   1.402       .  A
C2645      C2650   1.402       .  A
C2645      H2652   1.084       .  S
C2646      C2647   1.412       .  A
C2647      C2648   1.404       .  A
C2647      N2654   1.439       .  S
C2648      C2649   1.405       .  A
C2648      H2653   1.084       .  S
C2649      C2650   1.412       .  A
C2650      N2651   1.433       .  S
N2651      H2655   1.046       .  S
N2651      H2656   1.046       .  S
N2654      H2657   1.046       .  S
N2654      H2658   1.046       .  S
C2659      C2660   1.406       .  A
C2659      C2664   1.408       .  A
C2659      H2666   1.084       .  S
C2660      C2661   1.413       .  A
C2661      C2662   1.401       .  A
C2661      N2668   1.433       .  S
C2662      C2663   1.403       .  A
C2662      H2667   1.084       .  S
C2663      C2664   1.413       .  A
C2664      N2665   1.432       .  S
N2665      H2669   1.046       .  S
N2665      H2670   1.046       .  S
N2668      H2671   1.046       .  S
N2668      H2672   1.046       .  S
C2673      C2674   1.408       .  A
C2673      C2678   1.397       .  A
C2673      H2680   1.084   1_556  S
C2674      C2675   1.408       .  A
C2675      C2676   1.404       .  A
C2675      N2682   1.438       .  S
C2676      C2677   1.406       .  A
C2676      H2681   1.084       .  S
C2677      C2678   1.407       .  A
C2678      N2679   1.433   1_556  S
N2679      H2683   1.045       .  S
N2679      H2684   1.046       .  S
N2682      H2685   1.046       .  S
N2682      H2686   1.046       .  S
C2687      C2688   1.404       .  A
C2687      C2692   1.399       .  A
C2687      H2694   1.084       .  S
C2688      C2689   1.413       .  A
C2689      C2690   1.406       .  A
C2689      N2696   1.438       .  S
C2690      C2691   1.402       .  A
C2690      H2695   1.084       .  S
C2691      C2692   1.414       .  A
C2692      N2693   1.433       .  S
N2693      H2697   1.045       .  S
N2693      H2698   1.046       .  S
N2696      H2699   1.046       .  S
N2696      H2700   1.046       .  S
C2701      C2702   1.399       .  A
C2701      C2706   1.404       .  A
C2701      H2708   1.084       .  S
C2702      C2703   1.417       .  A
C2703      C2704   1.407       .  A
C2703      N2710   1.438       .  S
C2704      C2705   1.400       .  A
C2704      H2709   1.084       .  S
C2705      C2706   1.414       .  A
C2706      N2707   1.433       .  S
N2707      H2711   1.046       .  S
N2707      H2712   1.046       .  S
N2710      H2713   1.046       .  S
N2710      H2714   1.046       .  S
C2715      C2716   1.404       .  A
C2715      C2720   1.395       .  A
C2715      H2722   1.084       .  S
C2716      C2717   1.412   1_545  A
C2717      C2718   1.403       .  A
C2717      N2724   1.439       .  S
C2718      C2719   1.409   1_565  A
C2718      H2723   1.083       .  S
C2719      C2720   1.417       .  A
C2720      N2721   1.433       .  S
N2721      H2725   1.046       .  S
N2721      H2726   1.045       .  S
N2724      H2727   1.045       .  S
N2724      H2728   1.046       .  S
C2729      C2730   1.406       .  A
C2729      C2734   1.403       .  A
C2729      H2736   1.084       .  S
C2730      C2731   1.415   1_545  A
C2731      C2732   1.402       .  A
C2731      N2738   1.433       .  S
C2732      C2733   1.404   1_565  A
C2732      H2737   1.084       .  S
C2733      C2734   1.412       .  A
C2734      N2735   1.433       .  S
N2735      H2739   1.046       .  S
N2735      H2740   1.046       .  S
N2738      H2741   1.046       .  S
N2738      H2742   1.046       .  S
C2743      C2744   1.408       .  A
C2743      C2748   1.395       .  A
C2743      H2750   1.083       .  S
C2744      C2745   1.419       .  A
C2745      C2746   1.406       .  A
C2745      N2752   1.438       .  S
C2746      C2747   1.399       .  A
C2746      H2751   1.084       .  S
C2747      C2748   1.406       .  A
C2748      N2749   1.433       .  S
N2749      H2753   1.045       .  S
N2749      H2754   1.046       .  S
N2752      H2755   1.046       .  S
N2752      H2756   1.046       .  S
C2757      C2758   1.407   1_545  A
C2757      C2762   1.403       .  A
C2757      H2764   1.084       .  S
C2758      C2759   1.410       .  A
C2759      C2760   1.405       .  A
C2759      N2766   1.432       .  S
C2760      C2761   1.409   1_565  A
C2760      H2765   1.084       .  S
C2761      C2762   1.412       .  A
C2762      N2763   1.432       .  S
N2763      H2767   1.046       .  S
N2763      H2768   1.046       .  S
N2766      H2769   1.046       .  S
N2766      H2770   1.045       .  S
C2771      C2772   1.410       .  A
C2771      C2776   1.406       .  A
C2771      H2778   1.084       .  S
C2772      C2773   1.408       .  A
C2773      C2774   1.404       .  A
C2773      N2780   1.437       .  S
C2774      C2775   1.406       .  A
C2774      H2779   1.084       .  S
C2775      C2776   1.404       .  A
C2776      N2777   1.438       .  S
N2777      H2781   1.046       .  S
N2777      H2782   1.045       .  S
N2780      H2783   1.045       .  S
N2780      H2784   1.046       .  S
C2785      C2786   1.404       .  A
C2785      C2790   1.404       .  A
C2785      H2792   1.084       .  S
C2786      C2787   1.418       .  A
C2787      C2788   1.401       .  A
C2787      N2794   1.440       .  S
C2788      C2789   1.403       .  A
C2788      H2793   1.084       .  S
C2789      C2790   1.409       .  A
C2790      N2791   1.438       .  S
N2791      H2795   1.046       .  S
N2791      H2796   1.046       .  S
N2794      H2797   1.042       .  S
N2794      H2798   1.046       .  S
C2799      C2800   1.406   1_545  A
C2799      C2804   1.413       .  A
C2799      H2806   1.084       .  S
C2800      C2801   1.409       .  A
C2801      C2802   1.401       .  A
C2801      N2808   1.433       .  S
C2802      C2803   1.409       .  A
C2802      H2807   1.084       .  S
C2803      C2804   1.415   1_565  A
C2804      N2805   1.432       .  S
N2805      H2809   1.045       .  S
N2805      H2810   1.046       .  S
N2808      H2811   1.046       .  S
N2808      H2812   1.046       .  S
C2813      C2814   1.409       .  A
C2813      C2818   1.406       .  A
C2813      H2820   1.084       .  S
C2814      C2815   1.412   1_545  A
C2815      C2816   1.406       .  A
C2815      N2822   1.433       .  S
C2816      C2817   1.409       .  A
C2816      H2821   1.084       .  S
C2817      C2818   1.412   1_565  A
C2818      N2819   1.433       .  S
N2819      H2823   1.046       .  S
N2819      H2824   1.046       .  S
N2822      H2825   1.046       .  S
N2822      H2826   1.046       .  S
C2827      C2828   1.406       .  A
C2827      C2832   1.398       .  A
C2827      H2834   1.084       .  S
C2828      C2829   1.402       .  A
C2829      C2830   1.402       .  A
C2829      N2836   1.432       .  S
C2830      C2831   1.409       .  A
C2830      H2835   1.084       .  S
C2831      C2832   1.409       .  A
C2832      N2833   1.432       .  S
N2833      H2837   1.045       .  S
N2833      H2838   1.046       .  S
N2836      H2839   1.046       .  S
N2836      H2840   1.046       .  S
C2841      C2842   1.403   1_556  A
C2841      C2846   1.403       .  A
C2841      H2848   1.084   1_556  S
C2842      C2843   1.412   1_545  A
C2843      C2844   1.402   1_554  A
C2843      N2850   1.439       .  S
C2844      C2845   1.405   1_565  A
C2844      H2849   1.084       .  S
C2845      C2846   1.415       .  A
C2846      N2847   1.439       .  S
N2847      H2851   1.046       .  S
N2847      H2852   1.046       .  S
N2850      H2853   1.046       .  S
N2850      H2854   1.046       .  S
C2855      C2856   1.410       .  A
C2855      C2860   1.402       .  A
C2855      H2862   1.084       .  S
C2856      C2857   1.408   1_545  A
C2857      C2858   1.401       .  A
C2857      N2864   1.432       .  S
C2858      C2859   1.407   1_565  A
C2858      H2863   1.084       .  S
C2859      C2860   1.406       .  A
C2860      N2861   1.433       .  S
N2861      H2865   1.046       .  S
N2861      H2866   1.045       .  S
N2864      H2867   1.045       .  S
N2864      H2868   1.046       .  S
C2869      C2870   1.402       .  A
C2869      C2874   1.401       .  A
C2869      H2876   1.083       .  S
C2870      C2871   1.411       .  A
C2871      C2872   1.401       .  A
C2871      N2878   1.433       .  S
C2872      C2873   1.402       .  A
C2872      H2877   1.084       .  S
C2873      C2874   1.408       .  A
C2874      N2875   1.432       .  S
N2875      H2879   1.046       .  S
N2875      H2880   1.046       .  S
N2878      H2881   1.046       .  S
N2878      H2882   1.046       .  S
C2883      C2884   1.405   1_545  A
C2883      C2888   1.411       .  A
C2883      H2890   1.084       .  S
C2884      C2885   1.408       .  A
C2885      C2886   1.395       .  A
C2885      N2892   1.433       .  S
C2886      C2887   1.405       .  A
C2886      H2891   1.084       .  S
C2887      C2888   1.416   1_565  A
C2888      N2889   1.432       .  S
N2889      H2893   1.046       .  S
N2889      H2894   1.046       .  S
N2892      H2895   1.046       .  S
N2892      H2896   1.046       .  S
C2897      C2898   1.402   1_545  A
C2897      C2902   1.405       .  A
C2897      H2904   1.084       .  S
C2898      C2899   1.417       .  A
C2899      C2900   1.403       .  A
C2899      N2906   1.438       .  S
C2900      C2901   1.402   1_565  A
C2900      H2905   1.083       .  S
C2901      C2902   1.420       .  A
C2902      N2903   1.439       .  S
N2903      H2907   1.046       .  S
N2903      H2908   1.046       .  S
N2906      H2909   1.046       .  S
N2906      H2910   1.046       .  S
C2911      C2912   1.406       .  A
C2911      C2916   1.404   1_556  A
C2911      H2918   1.084       .  S
C2912      C2913   1.417   1_545  A
C2913      C2914   1.401   1_556  A
C2913      N2920   1.433       .  S
C2914      C2915   1.404   1_565  A
C2914      H2919   1.084       .  S
C2915      C2916   1.418       .  A
C2916      N2917   1.433       .  S
N2917      H2921   1.046       .  S
N2917      H2922   1.046       .  S
N2920      H2923   1.046       .  S
N2920      H2924   1.046       .  S
C2925      C2926   1.408   1_545  A
C2925      C2930   1.410   1_655  A
C2925      H2932   1.084       .  S
C2926      C2927   1.409       .  A
C2927      C2928   1.404   1_655  A
C2927      N2934   1.432       .  S
C2928      C2929   1.408   1_565  A
C2928      H2933   1.083       .  S
C2929      C2930   1.417       .  A
C2930      N2931   1.438       .  S
N2931      H2935   1.046   1_455  S
N2931      H2936   1.046       .  S
N2934      H2937   1.046   1_655  S
N2934      H2938   1.046       .  S
C2939      C2940   1.406   1_565  A
C2939      C2944   1.411       .  A
C2939      H2946   1.084       .  S
C2940      C2941   1.413       .  A
C2941      C2942   1.400       .  A
C2941      N2948   1.433       .  S
C2942      C2943   1.399       .  A
C2942      H2947   1.085       .  S
C2943      C2944   1.421   1_545  A
C2944      N2945   1.439       .  S
N2945      H2949   1.046       .  S
N2945      H2950   1.042       .  S
N2948      H2951   1.046       .  S
N2948      H2952   1.046       .  S
C2953      C2954   1.411   1_545  A
C2953      C2958   1.412   1_654  A
C2953      H2960   1.083       .  S
C2954      C2955   1.413       .  A
C2955      C2956   1.402   1_654  A
C2955      N2962   1.432       .  S
C2956      C2957   1.405   1_565  A
C2956      H2961   1.084       .  S
C2957      C2958   1.415       .  A
C2958      N2959   1.438       .  S
N2959      H2963   1.046   1_455  S
N2959      H2964   1.046       .  S
N2962      H2965   1.046   1_655  S
N2962      H2966   1.046       .  S
C2967      C2968   1.405   1_545  A
C2967      C2972   1.402       .  A
C2967      H2974   1.084       .  S
C2968      C2969   1.412       .  A
C2969      C2970   1.402       .  A
C2969      N2976   1.433       .  S
C2970      C2971   1.403       .  A
C2970      H2975   1.084       .  S
C2971      C2972   1.412   1_565  A
C2972      N2973   1.438       .  S
N2973      H2977   1.046       .  S
N2973      H2978   1.045       .  S
N2976      H2979   1.046       .  S
N2976      H2980   1.046       .  S
C2981      C2982   1.406   1_565  A
C2981      C2986   1.400       .  A
C2981      H2988   1.084       .  S
C2982      C2983   1.410       .  A
C2983      C2984   1.403       .  A
C2983      N2990   1.433       .  S
C2984      C2985   1.409       .  A
C2984      H2989   1.084       .  S
C2985      C2986   1.411   1_545  A
C2986      N2987   1.433       .  S
N2987      H2991   1.046       .  S
N2987      H2992   1.046       .  S
N2990      H2993   1.046       .  S
N2990      H2994   1.046       .  S
C2995      C2996   1.408   1_565  A
C2995      C3000   1.405       .  A
C2995      H3002   1.084       .  S
C2996      C2997   1.422       .  A
C2997      C2998   1.395       .  A
C2997      N3004   1.434       .  S
C2998      C2999   1.399       .  A
C2998      H3003   1.085       .  S
C2999      C3000   1.412   1_545  A
C3000      N3001   1.432       .  S
N3001      H3005   1.046       .  S
N3001      H3006   1.045       .  S
N3004      H3007   1.044       .  S
N3004      H3008   1.046       .  S
C3009      C3010   1.402       .  A
C3009      C3014   1.406       .  A
C3009      H3016   1.084       .  S
C3010      C3011   1.412       .  A
C3011      C3012   1.407       .  A
C3011      N3018   1.438       .  S
C3012      C3013   1.404       .  A
C3012      H3017   1.084       .  S
C3013      C3014   1.413       .  A
C3014      N3015   1.438       .  S
N3015      H3019   1.046       .  S
N3015      H3020   1.046       .  S
N3018      H3021   1.046       .  S
N3018      H3022   1.046       .  S
C3023      C3024   1.406       .  A
C3023      C3028   1.406       .  A
C3023      H3030   1.083       .  S
C3024      C3025   1.419       .  A
C3025      C3026   1.403       .  A
C3025      N3032   1.439       .  S
C3026      C3027   1.402       .  A
C3026      H3031   1.084       .  S
C3027      C3028   1.415       .  A
C3028      N3029   1.438       .  S
N3029      H3033   1.046       .  S
N3029      H3034   1.046       .  S
N3032      H3035   1.046       .  S
N3032      H3036   1.046       .  S
C3037      C3038   1.411       .  A
C3037      C3042   1.398       .  A
C3037      H3044   1.084       .  S
C3038      C3039   1.415       .  A
C3039      C3040   1.407       .  A
C3039      N3046   1.438       .  S
C3040      C3041   1.407       .  A
C3040      H3045   1.084       .  S
C3041      C3042   1.411       .  A
C3042      N3043   1.432       .  S
N3043      H3047   1.042       .  S
N3043      H3048   1.045       .  S
N3046      H3049   1.046       .  S
N3046      H3050   1.046       .  S
C3051      C3052   1.401       .  A
C3051      C3056   1.407       .  A
C3051      H3058   1.084       .  S
C3052      C3053   1.411       .  A
C3053      C3054   1.398       .  A
C3053      N3060   1.433       .  S
C3054      C3055   1.405       .  A
C3054      H3059   1.084       .  S
C3055      C3056   1.414       .  A
C3056      N3057   1.438       .  S
N3057      H3061   1.046       .  S
N3057      H3062   1.046       .  S
N3060      H3063   1.046       .  S
N3060      H3064   1.045       .  S
C3065      C3066   1.408       .  A
C3065      C3070   1.403   1_655  A
C3065      H3072   1.084       .  S
C3066      C3067   1.414       .  A
C3067      C3068   1.408   1_655  A
C3067      N3074   1.438       .  S
C3068      C3069   1.408       .  A
C3068      H3073   1.083       .  S
C3069      C3070   1.409       .  A
C3070      N3071   1.432       .  S
N3071      H3075   1.045       .  S
N3071      H3076   1.046   1_455  S
N3074      H3077   1.046       .  S
N3074      H3078   1.046   1_655  S
C3079      C3080   1.403       .  A
C3079      C3084   1.406       .  A
C3079      H3086   1.084       .  S
C3080      C3081   1.414       .  A
C3081      C3082   1.398       .  A
C3081      N3088   1.433       .  S
C3082      C3083   1.403       .  A
C3082      H3087   1.084       .  S
C3083      C3084   1.411       .  A
C3084      N3085   1.438       .  S
N3085      H3089   1.046       .  S
N3085      H3090   1.046       .  S
N3088      H3091   1.046       .  S
N3088      H3092   1.045       .  S
C3093      C3094   1.406       .  A
C3093      C3098   1.398       .  A
C3093      H3100   1.083       .  S
C3094      C3095   1.416       .  A
C3095      C3096   1.411       .  A
C3095      N3102   1.432       .  S
C3096      C3097   1.405       .  A
C3096      H3101   1.084       .  S
C3097      C3098   1.416       .  A
C3098      N3099   1.440       .  S
N3099      H3103   1.046       .  S
N3099      H3104   1.046       .  S
N3102      H3105   1.045       .  S
N3102      H3106   1.046       .  S
C3107      C3108   1.409       .  A
C3107      C3112   1.414       .  A
C3107      H3114   1.084       .  S
C3108      C3109   1.413       .  A
C3109      C3110   1.412   1_455  A
C3109      N3116   1.432       .  S
C3110      C3111   1.410       .  A
C3110      H3115   1.084       .  S
C3111      C3112   1.418   1_655  A
C3112      N3113   1.438   1_455  S
N3113      H3117   1.046       .  S
N3113      H3118   1.046   1_655  S
N3116      H3119   1.046       .  S
N3116      H3120   1.046   1_455  S
C3121      C3122   1.411       .  A
C3121      C3126   1.406       .  A
C3121      H3128   1.083       .  S
C3122      C3123   1.413       .  A
C3123      C3124   1.401       .  A
C3123      N3130   1.439       .  S
C3124      C3125   1.407       .  A
C3124      H3129   1.083       .  S
C3125      C3126   1.411       .  A
C3126      N3127   1.438       .  S
N3127      H3131   1.046       .  S
N3127      H3132   1.046       .  S
N3130      H3133   1.046       .  S
N3130      H3134   1.046       .  S
C3135      C3136   1.403       .  A
C3135      C3140   1.399   1_554  A
C3135      H3142   1.084       .  S
C3136      C3137   1.417       .  A
C3137      C3138   1.404   1_554  A
C3137      N3144   1.433       .  S
C3138      C3139   1.404       .  A
C3138      H3143   1.084       .  S
C3139      C3140   1.412       .  A
C3140      N3141   1.433       .  S
N3141      H3145   1.046       .  S
N3141      H3146   1.046       .  S
N3144      H3147   1.046       .  S
N3144      H3148   1.046       .  S
C3149      C3150   1.402       .  A
C3149      C3154   1.404       .  A
C3149      H3156   1.084       .  S
C3150      C3151   1.414       .  A
C3151      C3152   1.401       .  A
C3151      N3158   1.433       .  S
C3152      C3153   1.405       .  A
C3152      H3157   1.084       .  S
C3153      C3154   1.413       .  A
C3154      N3155   1.438       .  S
N3155      H3159   1.046       .  S
N3155      H3160   1.046       .  S
N3158      H3161   1.046       .  S
N3158      H3162   1.045       .  S
C3163      C3164   1.408       .  A
C3163      C3168   1.415       .  A
C3163      H3170   1.083       .  S
C3164      C3165   1.416       .  A
C3165      C3166   1.403       .  A
C3165      N3172   1.433       .  S
C3166      C3167   1.403       .  A
C3166      H3171   1.084       .  S
C3167      C3168   1.415       .  A
C3168      N3169   1.432       .  S
N3169      H3173   1.046       .  S
N3169      H3174   1.045       .  S
N3172      H3175   1.046       .  S
N3172      H3176   1.046       .  S
C3177      C3178   1.402       .  A
C3177      C3182   1.393       .  A
C3177      H3184   1.085       .  S
C3178      C3179   1.411       .  A
C3179      C3180   1.410       .  A
C3179      N3186   1.437       .  S
C3180      C3181   1.405       .  A
C3180      H3185   1.084       .  S
C3181      C3182   1.407       .  A
C3182      N3183   1.433       .  S
N3183      H3187   1.046       .  S
N3183      H3188   1.046       .  S
N3186      H3189   1.046       .  S
N3186      H3190   1.046       .  S
C3191      C3192   1.409       .  A
C3191      C3196   1.404       .  A
C3191      H3198   1.084       .  S
C3192      C3193   1.408       .  A
C3193      C3194   1.392       .  A
C3193      N3200   1.429       .  S
C3194      C3195   1.403       .  A
C3194      H3199   1.084       .  S
C3195      C3196   1.406       .  A
C3196      N3197   1.438       .  S
N3197      H3201   1.046       .  S
N3197      H3202   1.046       .  S
N3200      H3203   1.045       .  S
N3200      H3204   1.045       .  S
C3205      C3206   1.406       .  A
C3205      C3210   1.405       .  A
C3205      H3212   1.084       .  S
C3206      C3207   1.418       .  A
C3207      C3208   1.395       .  A
C3207      N3214   1.433       .  S
C3208      C3209   1.401       .  A
C3208      H3213   1.084       .  S
C3209      C3210   1.412       .  A
C3210      N3211   1.438       .  S
N3211      H3215   1.046       .  S
N3211      H3216   1.046       .  S
N3214      H3217   1.044       .  S
N3214      H3218   1.046       .  S
C3219      C3220   1.411       .  A
C3219      C3224   1.407       .  A
C3219      H3226   1.083       .  S
C3220      C3221   1.408       .  A
C3221      C3222   1.398       .  A
C3221      N3228   1.430       .  S
C3222      C3223   1.406       .  A
C3222      H3227   1.084       .  S
C3223      C3224   1.412       .  A
C3224      N3225   1.438       .  S
N3225      H3229   1.046       .  S
N3225      H3230   1.046       .  S
N3228      H3231   1.046       .  S
N3228      H3232   1.045       .  S
C3233      C3234   1.409       .  A
C3233      C3238   1.406   1_655  A
C3233      H3240   1.083       .  S
C3234      C3235   1.414       .  A
C3235      C3236   1.403   1_655  A
C3235      N3242   1.433       .  S
C3236      C3237   1.408       .  A
C3236      H3241   1.083       .  S
C3237      C3238   1.415       .  A
C3238      N3239   1.433       .  S
N3239      H3243   1.046       .  S
N3239      H3244   1.046       .  S
N3242      H3245   1.046       .  S
N3242      H3246   1.046       .  S
C3247      C3248   1.402       .  A
C3247      C3252   1.402       .  A
C3247      H3254   1.084       .  S
C3248      C3249   1.408       .  A
C3249      C3250   1.399       .  A
C3249      N3256   1.439       .  S
C3250      C3251   1.403       .  A
C3250      H3255   1.084       .  S
C3251      C3252   1.416       .  A
C3252      N3253   1.432       .  S
N3253      H3257   1.045       .  S
N3253      H3258   1.045       .  S
N3256      H3259   1.046       .  S
N3256      H3260   1.046       .  S
C3261      C3262   1.409       .  A
C3261      C3266   1.394       .  A
C3261      H3268   1.083       .  S
C3262      C3263   1.422       .  A
C3263      C3264   1.405       .  A
C3263      N3270   1.432       .  S
C3264      C3265   1.403       .  A
C3264      H3269   1.084       .  S
C3265      C3266   1.405       .  A
C3266      N3267   1.434       .  S
N3267      H3271   1.046       .  S
N3267      H3272   1.046       .  S
N3270      H3273   1.045       .  S
N3270      H3274   1.045       .  S
C3275      C3276   1.411       .  A
C3275      C3280   1.411   1_455  A
C3275      H3282   1.083       .  S
C3276      C3277   1.414       .  A
C3277      C3278   1.406   1_455  A
C3277      N3284   1.438       .  S
C3278      C3279   1.408       .  A
C3278      H3283   1.083       .  S
C3279      C3280   1.413       .  A
C3280      N3281   1.438       .  S
N3281      H3285   1.046       .  S
N3281      H3286   1.046       .  S
N3284      H3287   1.046       .  S
N3284      H3288   1.046       .  S
C3289      C3290   1.406       .  A
C3289      C3294   1.401       .  A
C3289      H3296   1.084       .  S
C3290      C3291   1.408       .  A
C3291      C3292   1.396       .  A
C3291      N3298   1.432   1_554  S
C3292      C3293   1.406       .  A
C3292      H3297   1.084   1_554  S
C3293      C3294   1.406       .  A
C3294      N3295   1.437       .  S
N3295      H3299   1.046       .  S
N3295      H3300   1.046       .  S
N3298      H3301   1.046       .  S
N3298      H3302   1.045       .  S
C3303      C3304   1.404       .  A
C3303      C3308   1.404       .  A
C3303      H3310   1.083       .  S
C3304      C3305   1.417       .  A
C3305      C3306   1.403       .  A
C3305      N3312   1.439       .  S
C3306      C3307   1.402       .  A
C3306      H3311   1.084       .  S
C3307      C3308   1.413       .  A
C3308      N3309   1.438       .  S
N3309      H3313   1.046       .  S
N3309      H3314   1.046       .  S
N3312      H3315   1.046       .  S
N3312      H3316   1.046       .  S
C3317      C3318   1.408       .  A
C3317      C3322   1.404       .  A
C3317      H3324   1.083       .  S
C3318      C3319   1.416       .  A
C3319      C3320   1.404       .  A
C3319      N3326   1.439       .  S
C3320      C3321   1.405       .  A
C3320      H3325   1.084       .  S
C3321      C3322   1.412       .  A
C3322      N3323   1.438       .  S
N3323      H3327   1.046       .  S
N3323      H3328   1.046       .  S
N3326      H3329   1.046       .  S
N3326      H3330   1.046       .  S
C3331      C3332   1.403       .  A
C3331      C3336   1.410       .  A
C3331      H3338   1.084       .  S
C3332      C3333   1.407       .  A
C3333      C3334   1.398       .  A
C3333      N3340   1.434       .  S
C3334      C3335   1.407       .  A
C3334      H3339   1.084       .  S
C3335      C3336   1.416       .  A
C3336      N3337   1.432       .  S
N3337      H3341   1.046   1_556  S
N3337      H3342   1.046       .  S
N3340      H3343   1.046       .  S
N3340      H3344   1.046       .  S
C3345      C3346   1.406       .  A
C3345      C3350   1.396       .  A
C3345      H3352   1.084       .  S
C3346      C3347   1.407       .  A
C3347      C3348   1.405       .  A
C3347      N3354   1.438       .  S
C3348      C3349   1.409       .  A
C3348      H3353   1.084       .  S
C3349      C3350   1.409       .  A
C3350      N3351   1.430       .  S
N3351      H3355   1.044       .  S
N3351      H3356   1.045       .  S
N3354      H3357   1.045       .  S
N3354      H3358   1.046       .  S
C3359      C3360   1.402       .  A
C3359      C3364   1.404       .  A
C3359      H3366   1.084       .  S
C3360      C3361   1.410       .  A
C3361      C3362   1.394       .  A
C3361      N3368   1.433       .  S
C3362      C3363   1.403       .  A
C3362      H3367   1.084       .  S
C3363      C3364   1.412       .  A
C3364      N3365   1.438       .  S
N3365      H3369   1.046       .  S
N3365      H3370   1.046       .  S
N3368      H3371   1.046       .  S
N3368      H3372   1.045       .  S
C3373      C3374   1.401       .  A
C3373      C3378   1.400       .  A
C3373      H3380   1.084       .  S
C3374      C3375   1.421       .  A
C3375      C3376   1.404       .  A
C3375      N3382   1.433   1_554  S
C3376      C3377   1.397       .  A
C3376      H3381   1.084       .  S
C3377      C3378   1.409       .  A
C3378      N3379   1.432       .  S
N3379      H3383   1.046       .  S
N3379      H3384   1.046       .  S
N3382      H3385   1.046       .  S
N3382      H3386   1.046       .  S
C3387      C3388   1.403       .  A
C3387      C3392   1.402       .  A
C3387      H3394   1.084       .  S
C3388      C3389   1.411       .  A
C3389      C3390   1.398       .  A
C3389      N3396   1.433       .  S
C3390      C3391   1.403       .  A
C3390      H3395   1.084       .  S
C3391      C3392   1.413       .  A
C3392      N3393   1.433       .  S
N3393      H3397   1.046       .  S
N3393      H3398   1.046       .  S
N3396      H3399   1.046       .  S
N3396      H3400   1.046       .  S
C3401      C3402   1.410       .  A
C3401      C3406   1.403       .  A
C3401      H3408   1.083       .  S
C3402      C3403   1.409       .  A
C3403      C3404   1.400       .  A
C3403      N3410   1.433       .  S
C3404      C3405   1.409       .  A
C3404      H3409   1.083       .  S
C3405      C3406   1.411       .  A
C3406      N3407   1.433       .  S
N3407      H3411   1.046       .  S
N3407      H3412   1.046       .  S
N3410      H3413   1.046       .  S
N3410      H3414   1.046       .  S
C3415      C3416   1.401       .  A
C3415      C3420   1.404       .  A
C3415      H3422   1.084       .  S
C3416      C3417   1.411       .  A
C3417      C3418   1.393       .  A
C3417      N3424   1.433       .  S
C3418      C3419   1.402       .  A
C3418      H3423   1.084       .  S
C3419      C3420   1.412       .  A
C3420      N3421   1.438       .  S
N3421      H3425   1.046       .  S
N3421      H3426   1.046       .  S
N3424      H3427   1.046   1_556  S
N3424      H3428   1.045       .  S
C3429      C3430   1.405       .  A
C3429      C3434   1.402   1_655  A
C3429      H3436   1.084       .  S
C3430      C3431   1.421       .  A
C3431      C3432   1.399   1_655  A
C3431      N3438   1.432       .  S
C3432      C3433   1.406       .  A
C3432      H3437   1.084       .  S
C3433      C3434   1.424       .  A
C3434      N3435   1.433       .  S
N3435      H3439   1.045       .  S
N3435      H3440   1.045       .  S
N3438      H3441   1.045       .  S
N3438      H3442   1.045       .  S
C3443      C3444   1.402       .  A
C3443      C3448   1.398       .  A
C3443      H3450   1.084       .  S
C3444      C3445   1.412       .  A
C3445      C3446   1.410       .  A
C3445      N3452   1.437       .  S
C3446      C3447   1.403       .  A
C3446      H3451   1.084       .  S
C3447      C3448   1.408       .  A
C3448      N3449   1.433       .  S
N3449      H3453   1.046       .  S
N3449      H3454   1.046       .  S
N3452      H3455   1.046       .  S
N3452      H3456   1.046       .  S
C3457      C3458   1.403       .  A
C3457      C3462   1.405       .  A
C3457      H3464   1.084       .  S
C3458      C3459   1.412       .  A
C3459      C3460   1.396       .  A
C3459      N3466   1.433       .  S
C3460      C3461   1.403       .  A
C3460      H3465   1.084       .  S
C3461      C3462   1.411       .  A
C3462      N3463   1.438       .  S
N3463      H3467   1.046       .  S
N3463      H3468   1.046   1_556  S
N3466      H3469   1.046       .  S
N3466      H3470   1.044       .  S
C3471      C3472   1.406       .  A
C3471      C3476   1.395       .  A
C3471      H3478   1.084       .  S
C3472      C3473   1.415       .  A
C3473      C3474   1.410       .  A
C3473      N3480   1.432       .  S
C3474      C3475   1.405       .  A
C3474      H3479   1.084       .  S
C3475      C3476   1.405       .  A
C3476      N3477   1.433   1_556  S
N3477      H3481   1.046       .  S
N3477      H3482   1.046       .  S
N3480      H3483   1.045       .  S
N3480      H3484   1.046       .  S
C3485      C3486   1.408       .  A
C3485      C3490   1.403   1_655  A
C3485      H3492   1.084       .  S
C3486      C3487   1.413       .  A
C3487      C3488   1.403   1_655  A
C3487      N3494   1.432       .  S
C3488      C3489   1.408       .  A
C3488      H3493   1.084       .  S
C3489      C3490   1.414       .  A
C3490      N3491   1.433       .  S
N3491      H3495   1.046       .  S
N3491      H3496   1.046   1_455  S
N3494      H3497   1.046   1_655  S
N3494      H3498   1.046       .  S
C3499      C3500   1.409       .  A
C3499      C3504   1.405       .  A
C3499      H3506   1.084       .  S
C3500      C3501   1.407       .  A
C3501      C3502   1.401       .  A
C3501      N3508   1.432       .  S
C3502      C3503   1.403       .  A
C3502      H3507   1.084       .  S
C3503      C3504   1.405       .  A
C3504      N3505   1.438       .  S
N3505      H3509   1.046       .  S
N3505      H3510   1.046       .  S
N3508      H3511   1.046       .  S
N3508      H3512   1.046       .  S
C3513      C3514   1.409       .  A
C3513      C3518   1.399       .  A
C3513      H3520   1.084       .  S
C3514      C3515   1.415       .  A
C3515      C3516   1.398       .  A
C3515      N3522   1.433       .  S
C3516      C3517   1.411       .  A
C3516      H3521   1.083       .  S
C3517      C3518   1.410       .  A
C3518      N3519   1.433       .  S
N3519      H3523   1.046       .  S
N3519      H3524   1.046       .  S
N3522      H3525   1.045       .  S
N3522      H3526   1.045       .  S
C3527      C3528   1.406       .  A
C3527      C3532   1.404       .  A
C3527      H3534   1.083       .  S
C3528      C3529   1.413       .  A
C3529      C3530   1.400       .  A
C3529      N3536   1.433       .  S
C3530      C3531   1.402       .  A
C3530      H3535   1.084       .  S
C3531      C3532   1.412       .  A
C3532      N3533   1.439       .  S
N3533      H3537   1.046       .  S
N3533      H3538   1.046       .  S
N3536      H3539   1.046       .  S
N3536      H3540   1.046       .  S
C3541      C3542   1.402       .  A
C3541      C3546   1.402       .  A
C3541      H3548   1.084       .  S
C3542      C3543   1.414       .  A
C3543      C3544   1.397       .  A
C3543      N3550   1.433       .  S
C3544      C3545   1.402       .  A
C3544      H3549   1.084       .  S
C3545      C3546   1.411       .  A
C3546      N3547   1.438       .  S
N3547      H3551   1.046       .  S
N3547      H3552   1.046       .  S
N3550      H3553   1.046       .  S
N3550      H3554   1.045       .  S
C3555      C3556   1.407       .  A
C3555      C3560   1.397       .  A
C3555      H3562   1.083       .  S
C3556      C3557   1.416       .  A
C3557      C3558   1.411       .  A
C3557      N3564   1.432       .  S
C3558      C3559   1.406       .  A
C3558      H3563   1.084       .  S
C3559      C3560   1.411       .  A
C3560      N3561   1.434       .  S
N3561      H3565   1.046       .  S
N3561      H3566   1.046       .  S
N3564      H3567   1.046       .  S
N3564      H3568   1.045       .  S
C3569      C3570   1.407       .  A
C3569      C3574   1.410       .  A
C3569      H3576   1.083       .  S
C3570      C3571   1.417       .  A
C3571      C3572   1.408       .  A
C3571      N3578   1.433       .  S
C3572      C3573   1.407       .  A
C3572      H3577   1.084       .  S
C3573      C3574   1.419       .  A
C3574      N3575   1.439       .  S
N3575      H3579   1.046       .  S
N3575      H3580   1.046       .  S
N3578      H3581   1.046       .  S
N3578      H3582   1.046       .  S
C3583      C3584   1.410       .  A
C3583      C3588   1.411       .  A
C3583      H3590   1.083       .  S
C3584      C3585   1.412       .  A
C3585      C3586   1.405       .  A
C3585      N3592   1.431       .  S
C3586      C3587   1.408       .  A
C3586      H3591   1.083       .  S
C3587      C3588   1.417       .  A
C3588      N3589   1.438       .  S
N3589      H3593   1.046       .  S
N3589      H3594   1.046       .  S
N3592      H3595   1.045       .  S
N3592      H3596   1.045       .  S
C3597      C3598   1.409       .  A
C3597      C3602   1.400       .  A
C3597      H3604   1.083       .  S
C3598      C3599   1.416       .  A
C3599      C3600   1.406       .  A
C3599      N3606   1.438       .  S
C3600      C3601   1.407       .  A
C3600      H3605   1.083       .  S
C3601      C3602   1.411       .  A
C3602      N3603   1.433       .  S
N3603      H3607   1.046       .  S
N3603      H3608   1.046       .  S
N3606      H3609   1.046       .  S
N3606      H3610   1.046       .  S
C3611      C3612   1.407       .  A
C3611      C3616   1.403       .  A
C3611      H3618   1.083       .  S
C3612      C3613   1.408       .  A
C3613      C3614   1.400       .  A
C3613      N3620   1.433       .  S
C3614      C3615   1.409       .  A
C3614      H3619   1.083       .  S
C3615      C3616   1.414       .  A
C3616      N3617   1.439       .  S
N3617      H3621   1.046       .  S
N3617      H3622   1.046       .  S
N3620      H3623   1.046       .  S
N3620      H3624   1.046       .  S
C3625      C3626   1.407       .  A
C3625      C3630   1.407       .  A
C3625      H3632   1.083       .  S
C3626      C3627   1.413       .  A
C3627      C3628   1.407       .  A
C3627      N3634   1.438       .  S
C3628      C3629   1.409       .  A
C3628      H3633   1.083       .  S
C3629      C3630   1.415       .  A
C3630      N3631   1.438       .  S
N3631      H3635   1.046       .  S
N3631      H3636   1.046       .  S
N3634      H3637   1.046       .  S
N3634      H3638   1.046       .  S
C3639      C3640   1.406       .  A
C3639      C3644   1.413       .  A
C3639      H3646   1.084       .  S
C3640      C3641   1.408       .  A
C3641      C3642   1.396       .  A
C3641      N3648   1.434       .  S
C3642      C3643   1.408       .  A
C3642      H3647   1.083       .  S
C3643      C3644   1.416       .  A
C3644      N3645   1.432       .  S
N3645      H3649   1.046       .  S
N3645      H3650   1.046       .  S
N3648      H3651   1.046       .  S
N3648      H3652   1.046       .  S
C3653      C3654   1.408       .  A
C3653      C3658   1.405       .  A
C3653      H3660   1.084       .  S
C3654      C3655   1.415       .  A
C3655      C3656   1.406       .  A
C3655      N3662   1.432       .  S
C3656      C3657   1.407       .  A
C3656      H3661   1.084       .  S
C3657      C3658   1.416       .  A
C3658      N3659   1.433       .  S
N3659      H3663   1.046       .  S
N3659      H3664   1.046       .  S
N3662      H3665   1.046       .  S
N3662      H3666   1.046       .  S
C3667      C3668   1.404       .  A
C3667      C3672   1.404       .  A
C3667      H3674   1.084       .  S
C3668      C3669   1.413       .  A
C3669      C3670   1.405       .  A
C3669      N3676   1.433       .  S
C3670      C3671   1.407       .  A
C3670      H3675   1.084       .  S
C3671      C3672   1.417       .  A
C3672      N3673   1.438       .  S
N3673      H3677   1.046       .  S
N3673      H3678   1.046       .  S
N3676      H3679   1.046       .  S
N3676      H3680   1.046       .  S
C3681      C3682   1.403       .  A
C3681      C3686   1.406       .  A
C3681      H3688   1.084       .  S
C3682      C3683   1.412       .  A
C3683      C3684   1.403       .  A
C3683      N3690   1.438       .  S
C3684      C3685   1.404       .  A
C3684      H3689   1.084       .  S
C3685      C3686   1.417       .  A
C3686      N3687   1.438       .  S
N3687      H3691   1.046       .  S
N3687      H3692   1.046       .  S
N3690      H3693   1.046       .  S
N3690      H3694   1.046       .  S
C3695      C3696   1.408       .  A
C3695      C3700   1.393       .  A
C3695      H3702   1.084       .  S
C3696      C3697   1.421       .  A
C3697      C3698   1.408       .  A
C3697      N3704   1.432       .  S
C3698      C3699   1.405       .  A
C3698      H3703   1.084       .  S
C3699      C3700   1.412       .  A
C3700      N3701   1.434   1_554  S
N3701      H3705   1.044   1_556  S
N3701      H3706   1.046       .  S
N3704      H3707   1.045       .  S
N3704      H3708   1.045       .  S
C3709      C3710   1.410   1_565  A
C3709      C3714   1.401       .  A
C3709      H3716   1.084       .  S
C3710      C3711   1.419       .  A
C3711      C3712   1.402       .  A
C3711      N3718   1.433       .  S
C3712      C3713   1.410   1_545  A
C3712      H3717   1.084       .  S
C3713      C3714   1.419       .  A
C3714      N3715   1.433       .  S
N3715      H3719   1.044       .  S
N3715      H3720   1.046       .  S
N3718      H3721   1.045       .  S
N3718      H3722   1.045       .  S
C3723      C3724   1.402       .  A
C3723      C3728   1.399       .  A
C3723      H3730   1.084       .  S
C3724      C3725   1.408       .  A
C3725      C3726   1.404       .  A
C3725      N3732   1.432       .  S
C3726      C3727   1.404       .  A
C3726      H3731   1.084       .  S
C3727      C3728   1.416       .  A
C3728      N3729   1.433       .  S
N3729      H3733   1.045       .  S
N3729      H3734   1.046       .  S
N3732      H3735   1.046       .  S
N3732      H3736   1.045       .  S
C3737      C3738   1.409       .  A
C3737      C3742   1.409       .  A
C3737      H3744   1.083       .  S
C3738      C3739   1.415   1_545  A
C3739      C3740   1.410       .  A
C3739      N3746   1.438       .  S
C3740      C3741   1.409   1_565  A
C3740      H3745   1.083       .  S
C3741      C3742   1.417       .  A
C3742      N3743   1.438       .  S
N3743      H3747   1.046       .  S
N3743      H3748   1.046       .  S
N3746      H3749   1.046       .  S
N3746      H3750   1.046       .  S
C3751      C3752   1.409   1_565  A
C3751      C3756   1.401       .  A
C3751      H3758   1.083       .  S
C3752      C3753   1.414       .  A
C3753      C3754   1.402       .  A
C3753      N3760   1.433       .  S
C3754      C3755   1.406       .  A
C3754      H3759   1.084       .  S
C3755      C3756   1.411   1_545  A
C3756      N3757   1.433       .  S
N3757      H3761   1.046       .  S
N3757      H3762   1.046       .  S
N3760      H3763   1.046       .  S
N3760      H3764   1.046       .  S
C3765      C3766   1.408       .  A
C3765      C3770   1.401       .  A
C3765      H3772   1.083       .  S
C3766      C3767   1.412   1_545  A
C3767      C3768   1.400       .  A
C3767      N3774   1.433       .  S
C3768      C3769   1.408   1_565  A
C3768      H3773   1.083       .  S
C3769      C3770   1.412       .  A
C3770      N3771   1.433       .  S
N3771      H3775   1.046       .  S
N3771      H3776   1.046       .  S
N3774      H3777   1.046       .  S
N3774      H3778   1.046       .  S
C3779      C3780   1.401       .  A
C3779      C3784   1.404       .  A
C3779      H3786   1.084       .  S
C3780      C3781   1.406       .  A
C3781      C3782   1.403       .  A
C3781      N3788   1.432       .  S
C3782      C3783   1.406       .  A
C3782      H3787   1.084       .  S
C3783      C3784   1.413       .  A
C3784      N3785   1.433       .  S
N3785      H3789   1.046       .  S
N3785      H3790   1.046       .  S
N3788      H3791   1.046       .  S
N3788      H3792   1.046       .  S
C3793      C3794   1.410       .  A
C3793      C3798   1.412       .  A
C3793      H3800   1.083       .  S
C3794      C3795   1.413   1_545  A
C3795      C3796   1.403       .  A
C3795      N3802   1.433       .  S
C3796      C3797   1.406   1_565  A
C3796      H3801   1.084       .  S
C3797      C3798   1.413       .  A
C3798      N3799   1.438       .  S
N3799      H3803   1.046       .  S
N3799      H3804   1.046       .  S
N3802      H3805   1.046       .  S
N3802      H3806   1.046       .  S
C3807      C3808   1.404       .  A
C3807      C3812   1.400       .  A
C3807      H3814   1.083       .  S
C3808      C3809   1.412       .  A
C3809      C3810   1.403       .  A
C3809      N3816   1.433   1_554  S
C3810      C3811   1.402       .  A
C3810      H3815   1.084       .  S
C3811      C3812   1.407       .  A
C3812      N3813   1.433       .  S
N3813      H3817   1.046       .  S
N3813      H3818   1.046       .  S
N3816      H3819   1.046       .  S
N3816      H3820   1.046       .  S
C3821      C3822   1.407   1_565  A
C3821      C3826   1.392       .  A
C3821      H3828   1.084       .  S
C3822      C3823   1.421       .  A
C3823      C3824   1.406       .  A
C3823      N3830   1.432       .  S
C3824      C3825   1.404       .  A
C3824      H3829   1.084       .  S
C3825      C3826   1.412   1_545  A
C3826      N3827   1.434       .  S
N3827      H3831   1.044       .  S
N3827      H3832   1.046       .  S
N3830      H3833   1.045   1_554  S
N3830      H3834   1.045       .  S
C3835      C3836   1.408   1_565  A
C3835      C3840   1.404       .  A
C3835      H3842   1.084       .  S
C3836      C3837   1.423       .  A
C3837      C3838   1.403       .  A
C3837      N3844   1.433       .  S
C3838      C3839   1.408   1_545  A
C3838      H3843   1.084       .  S
C3839      C3840   1.424       .  A
C3840      N3841   1.433       .  S
N3841      H3845   1.045       .  S
N3841      H3846   1.045       .  S
N3844      H3847   1.045       .  S
N3844      H3848   1.045       .  S
C3849      C3850   1.403       .  A
C3849      C3854   1.402       .  A
C3849      H3856   1.084       .  S
C3850      C3851   1.411   1_545  A
C3851      C3852   1.403       .  A
C3851      N3858   1.433       .  S
C3852      C3853   1.406   1_565  A
C3852      H3857   1.084       .  S
C3853      C3854   1.412       .  A
C3854      N3855   1.432       .  S
N3855      H3859   1.046       .  S
N3855      H3860   1.046       .  S
N3858      H3861   1.046       .  S
N3858      H3862   1.046       .  S
C3863      C3864   1.411   1_565  A
C3863      C3868   1.401       .  A
C3863      H3870   1.083       .  S
C3864      C3865   1.412       .  A
C3865      C3866   1.408       .  A
C3865      N3872   1.438       .  S
C3866      C3867   1.410       .  A
C3866      H3871   1.083       .  S
C3867      C3868   1.409   1_545  A
C3868      N3869   1.439       .  S
N3869      H3873   1.046       .  S
N3869      H3874   1.046       .  S
N3872      H3875   1.046       .  S
N3872      H3876   1.046       .  S
C3877      C3878   1.403       .  A
C3877      C3882   1.400       .  A
C3877      H3884   1.084       .  S
C3878      C3879   1.411       .  A
C3879      C3880   1.405       .  A
C3879      N3886   1.438       .  S
C3880      C3881   1.404       .  A
C3880      H3885   1.084       .  S
C3881      C3882   1.415       .  A
C3882      N3883   1.433       .  S
N3883      H3887   1.045       .  S
N3883      H3888   1.046       .  S
N3886      H3889   1.046       .  S
N3886      H3890   1.046       .  S
C3891      C3892   1.402       .  A
C3891      C3896   1.402       .  A
C3891      H3898   1.084       .  S
C3892      C3893   1.421   1_565  A
C3893      C3894   1.405       .  A
C3893      N3900   1.439       .  S
C3894      C3895   1.403   1_545  A
C3894      H3899   1.084       .  S
C3895      C3896   1.413       .  A
C3896      N3897   1.433       .  S
N3897      H3901   1.046       .  S
N3897      H3902   1.046       .  S
N3900      H3903   1.041       .  S
N3900      H3904   1.046       .  S
C3905      C3906   1.409       .  A
C3905      C3910   1.405       .  A
C3905      H3912   1.084       .  S
C3906      C3907   1.417       .  A
C3907      C3908   1.408       .  A
C3907      N3914   1.438       .  S
C3908      C3909   1.407       .  A
C3908      H3913   1.083       .  S
C3909      C3910   1.414       .  A
C3910      N3911   1.433       .  S
N3911      H3915   1.046       .  S
N3911      H3916   1.046       .  S
N3914      H3917   1.046       .  S
N3914      H3918   1.046       .  S
C3919      C3920   1.401       .  A
C3919      C3924   1.398       .  A
C3919      H3926   1.084       .  S
C3920      C3921   1.414       .  A
C3921      C3922   1.403       .  A
C3921      N3928   1.432       .  S
C3922      C3923   1.404       .  A
C3922      H3927   1.084       .  S
C3923      C3924   1.409       .  A
C3924      N3925   1.433       .  S
N3925      H3929   1.046       .  S
N3925      H3930   1.046       .  S
N3928      H3931   1.046       .  S
N3928      H3932   1.045       .  S
C3933      C3934   1.407       .  A
C3933      C3938   1.406       .  A
C3933      H3940   1.084       .  S
C3934      C3935   1.416       .  A
C3935      C3936   1.405       .  A
C3935      N3942   1.433       .  S
C3936      C3937   1.407       .  A
C3936      H3941   1.084       .  S
C3937      C3938   1.415       .  A
C3938      N3939   1.432       .  S
N3939      H3943   1.046       .  S
N3939      H3944   1.046       .  S
N3942      H3945   1.046       .  S
N3942      H3946   1.046       .  S
C3947      C3948   1.396       .  A
C3947      C3952   1.401       .  A
C3947      H3954   1.084       .  S
C3948      C3949   1.411       .  A
C3949      C3950   1.403       .  A
C3949      N3956   1.433       .  S
C3950      C3951   1.401       .  A
C3950      H3955   1.084       .  S
C3951      C3952   1.417       .  A
C3952      N3953   1.433       .  S
N3953      H3957   1.045       .  S
N3953      H3958   1.046       .  S
N3956      H3959   1.046       .  S
N3956      H3960   1.046       .  S
C3961      C3962   1.405       .  A
C3961      C3966   1.402   1_556  A
C3961      H3968   1.084       .  S
C3962      C3963   1.417       .  A
C3963      C3964   1.399   1_556  A
C3963      N3970   1.433       .  S
C3964      C3965   1.402       .  A
C3964      H3969   1.084       .  S
C3965      C3966   1.415       .  A
C3966      N3967   1.433       .  S
N3967      H3971   1.046       .  S
N3967      H3972   1.046       .  S
N3970      H3973   1.046       .  S
N3970      H3974   1.046       .  S
C3975      C3976   1.408       .  A
C3975      C3980   1.400       .  A
C3975      H3982   1.083       .  S
C3976      C3977   1.410       .  A
C3977      C3978   1.399       .  A
C3977      N3984   1.431       .  S
C3978      C3979   1.407       .  A
C3978      H3983   1.083       .  S
C3979      C3980   1.413       .  A
C3980      N3981   1.433       .  S
N3981      H3985   1.046       .  S
N3981      H3986   1.046       .  S
N3984      H3987   1.046       .  S
N3984      H3988   1.046       .  S
C3989      C3990   1.413   1_554  A
C3989      C3994   1.414       .  A
C3989      H3996   1.083       .  S
C3990      C3991   1.414       .  A
C3991      C3992   1.410       .  A
C3991      N3998   1.438       .  S
C3992      C3993   1.410   1_556  A
C3992      H3997   1.083       .  S
C3993      C3994   1.414       .  A
C3994      N3995   1.438       .  S
N3995      H3999   1.046       .  S
N3995      H4000   1.046       .  S
N3998      H4001   1.046       .  S
N3998      H4002   1.046       .  S
C4003      C4004   1.407       .  A
C4003      C4008   1.405       .  A
C4003      H4010   1.084       .  S
C4004      C4005   1.406       .  A
C4005      C4006   1.406       .  A
C4005      N4012   1.438   1_556  S
C4006      C4007   1.409       .  A
C4006      H4011   1.084   1_556  S
C4007      C4008   1.409       .  A
C4008      N4009   1.438       .  S
N4009      H4013   1.046       .  S
N4009      H4014   1.045       .  S
N4012      H4015   1.046       .  S
N4012      H4016   1.046       .  S
C4017      C4018   1.401       .  A
C4017      C4022   1.398       .  A
C4017      H4024   1.085       .  S
C4018      C4019   1.422       .  A
C4019      C4020   1.409       .  A
C4019      N4026   1.439       .  S
C4020      C4021   1.405       .  A
C4020      H4025   1.084       .  S
C4021      C4022   1.412       .  A
C4022      N4023   1.433       .  S
N4023      H4027   1.046       .  S
N4023      H4028   1.046       .  S
N4026      H4029   1.041       .  S
N4026      H4030   1.046       .  S
C4031      C4032   1.409       .  A
C4031      C4036   1.406       .  A
C4031      H4038   1.083       .  S
C4032      C4033   1.415       .  A
C4033      C4034   1.407       .  A
C4033      N4040   1.433       .  S
C4034      C4035   1.409       .  A
C4034      H4039   1.083       .  S
C4035      C4036   1.415       .  A
C4036      N4037   1.433       .  S
N4037      H4041   1.046       .  S
N4037      H4042   1.046       .  S
N4040      H4043   1.046       .  S
N4040      H4044   1.046       .  S
C4045      C4046   1.409       .  A
C4045      C4050   1.403       .  A
C4045      H4052   1.084       .  S
C4046      C4047   1.412       .  A
C4047      C4048   1.397       .  A
C4047      N4054   1.433       .  S
C4048      C4049   1.404       .  A
C4048      H4053   1.084       .  S
C4049      C4050   1.403       .  A
C4050      N4051   1.438       .  S
N4051      H4055   1.046       .  S
N4051      H4056   1.045       .  S
N4054      H4057   1.045       .  S
N4054      H4058   1.045       .  S
C4059      C4060   1.405       .  A
C4059      C4064   1.404       .  A
C4059      H4066   1.083       .  S
C4060      C4061   1.416       .  A
C4061      C4062   1.406       .  A
C4061      N4068   1.438       .  S
C4062      C4063   1.402       .  A
C4062      H4067   1.081       .  S
C4063      C4064   1.414       .  A
C4064      N4065   1.438       .  S
N4065      H4069   1.046       .  S
N4065      H4070   1.046       .  S
N4068      H4071   1.046       .  S
N4068      H4072   1.046       .  S
C4073      C4074   1.405       .  A
C4073      C4078   1.404       .  A
C4073      H4080   1.083       .  S
C4074      C4075   1.419       .  A
C4075      C4076   1.404       .  A
C4075      N4082   1.438       .  S
C4076      C4077   1.402       .  A
C4076      H4081   1.084       .  S
C4077      C4078   1.417       .  A
C4078      N4079   1.439       .  S
N4079      H4083   1.046       .  S
N4079      H4084   1.046       .  S
N4082      H4085   1.046       .  S
N4082      H4086   1.046       .  S
C4087      C4088   1.403       .  A
C4087      C4092   1.403       .  A
C4087      H4094   1.084       .  S
C4088      C4089   1.421       .  A
C4089      C4090   1.407       .  A
C4089      N4096   1.440       .  S
C4090      C4091   1.404       .  A
C4090      H4095   1.084       .  S
C4091      C4092   1.413       .  A
C4092      N4093   1.439       .  S
N4093      H4097   1.046       .  S
N4093      H4098   1.046       .  S
N4096      H4099   1.041       .  S
N4096      H4100   1.046       .  S
C4101      C4102   1.409       .  A
C4101      C4106   1.407   1_556  A
C4101      H4108   1.083       .  S
C4102      C4103   1.423       .  A
C4103      C4104   1.403   1_556  A
C4103      N4110   1.429       .  S
C4104      C4105   1.407       .  A
C4104      H4109   1.084       .  S
C4105      C4106   1.416       .  A
C4106      N4107   1.433       .  S
N4107      H4111   1.046       .  S
N4107      H4112   1.046       .  S
N4110      H4113   1.045       .  S
N4110      H4114   1.046       .  S
C4115      C4116   1.402       .  A
C4115      C4120   1.401       .  A
C4115      H4122   1.084       .  S
C4116      C4117   1.413       .  A
C4117      C4118   1.397       .  A
C4117      N4124   1.429       .  S
C4118      C4119   1.400       .  A
C4118      H4123   1.084       .  S
C4119      C4120   1.411       .  A
C4120      N4121   1.438       .  S
N4121      H4125   1.046       .  S
N4121      H4126   1.046       .  S
N4124      H4127   1.046       .  S
N4124      H4128   1.042       .  S
C4129      C4130   1.404       .  A
C4129      C4134   1.400       .  A
C4129      H4136   1.084       .  S
C4130      C4131   1.409       .  A
C4131      C4132   1.400       .  A
C4131      N4138   1.433       .  S
C4132      C4133   1.402       .  A
C4132      H4137   1.084       .  S
C4133      C4134   1.414       .  A
C4134      N4135   1.433       .  S
N4135      H4139   1.045       .  S
N4135      H4140   1.046       .  S
N4138      H4141   1.046       .  S
N4138      H4142   1.046       .  S
C4143      C4144   1.409       .  A
C4143      C4148   1.408       .  A
C4143      H4150   1.084       .  S
C4144      C4145   1.413       .  A
C4145      C4146   1.404       .  A
C4145      N4152   1.433       .  S
C4146      C4147   1.408       .  A
C4146      H4151   1.084       .  S
C4147      C4148   1.415       .  A
C4148      N4149   1.432       .  S
N4149      H4153   1.046       .  S
N4149      H4154   1.046       .  S
N4152      H4155   1.046       .  S
N4152      H4156   1.046       .  S
C4157      C4158   1.402       .  A
C4157      C4162   1.409       .  A
C4157      H4164   1.084       .  S
C4158      C4159   1.402       .  A
C4159      C4160   1.394       .  A
C4159      N4166   1.433       .  S
C4160      C4161   1.405       .  A
C4160      H4165   1.084       .  S
C4161      C4162   1.414       .  A
C4162      N4163   1.436       .  S
N4163      H4167   1.046       .  S
N4163      H4168   1.045       .  S
N4166      H4169   1.046       .  S
N4166      H4170   1.046       .  S
C4171      C4172   1.406       .  A
C4171      C4176   1.401       .  A
C4171      H4178   1.084       .  S
C4172      C4173   1.411       .  A
C4173      C4174   1.399       .  A
C4173      N4180   1.433       .  S
C4174      C4175   1.406       .  A
C4174      H4179   1.084       .  S
C4175      C4176   1.412       .  A
C4176      N4177   1.433       .  S
N4177      H4181   1.046       .  S
N4177      H4182   1.046       .  S
N4180      H4183   1.046       .  S
N4180      H4184   1.046       .  S
C4185      C4186   1.408       .  A
C4185      C4190   1.402       .  A
C4185      H4192   1.084       .  S
C4186      C4187   1.410       .  A
C4187      C4188   1.398       .  A
C4187      N4194   1.432       .  S
C4188      C4189   1.406       .  A
C4188      H4193   1.084       .  S
C4189      C4190   1.411       .  A
C4190      N4191   1.433       .  S
N4191      H4195   1.046       .  S
N4191      H4196   1.046       .  S
N4194      H4197   1.046       .  S
N4194      H4198   1.046       .  S
C4199      C4200   1.402       .  A
C4199      C4204   1.400       .  A
C4199      H4206   1.082       .  S
C4200      C4201   1.411       .  A
C4201      C4202   1.401       .  A
C4201      N4208   1.433       .  S
C4202      C4203   1.400       .  A
C4202      H4207   1.081       .  S
C4203      C4204   1.417       .  A
C4204      N4205   1.440       .  S
N4205      H4209   1.046       .  S
N4205      H4210   1.042       .  S
N4208      H4211   1.046       .  S
N4208      H4212   1.046       .  S
C4213      C4214   1.406       .  A
C4213      C4218   1.404       .  A
C4213      H4220   1.084       .  S
C4214      C4215   1.413       .  A
C4215      C4216   1.406       .  A
C4215      N4222   1.433       .  S
C4216      C4217   1.408       .  A
C4216      H4221   1.083       .  S
C4217      C4218   1.417       .  A
C4218      N4219   1.433       .  S
N4219      H4223   1.046       .  S
N4219      H4224   1.046       .  S
N4222      H4225   1.046       .  S
N4222      H4226   1.046       .  S
C4227      C4228   1.411       .  A
C4227      C4232   1.406       .  A
C4227      H4234   1.084       .  S
C4228      C4229   1.407       .  A
C4229      C4230   1.404       .  A
C4229      N4236   1.436       .  S
C4230      C4231   1.405       .  A
C4230      H4235   1.084       .  S
C4231      C4232   1.405       .  A
C4232      N4233   1.438       .  S
N4233      H4237   1.046       .  S
N4233      H4238   1.045       .  S
N4236      H4239   1.045       .  S
N4236      H4240   1.046       .  S
C4241      C4242   1.401       .  A
C4241      C4246   1.404       .  A
C4241      H4248   1.084       .  S
C4242      C4243   1.407       .  A
C4243      C4244   1.403       .  A
C4243      N4250   1.431       .  S
C4244      C4245   1.405       .  A
C4244      H4249   1.084       .  S
C4245      C4246   1.414       .  A
C4246      N4247   1.436       .  S
N4247      H4251   1.046       .  S
N4247      H4252   1.046       .  S
N4250      H4253   1.045       .  S
N4250      H4254   1.046       .  S
C4255      C4256   1.405       .  A
C4255      C4260   1.415       .  A
C4255      H4262   1.084       .  S
C4256      C4257   1.404       .  A
C4257      C4258   1.394       .  A
C4257      N4264   1.434       .  S
C4258      C4259   1.409       .  A
C4258      H4263   1.083       .  S
C4259      C4260   1.419       .  A
C4260      N4261   1.437       .  S
N4261      H4265   1.046       .  S
N4261      H4266   1.046       .  S
N4264      H4267   1.046       .  S
N4264      H4268   1.046       .  S
C4269      C4270   1.409       .  A
C4269      C4274   1.403       .  A
C4269      H4276   1.084       .  S
C4270      C4271   1.421       .  A
C4271      C4272   1.401       .  A
C4271      N4278   1.433       .  S
C4272      C4273   1.406       .  A
C4272      H4277   1.084       .  S
C4273      C4274   1.420       .  A
C4274      N4275   1.433       .  S
N4275      H4279   1.044       .  S
N4275      H4280   1.046       .  S
N4278      H4281   1.046       .  S
N4278      H4282   1.044       .  S
C4283      C4284   1.406       .  A
C4283      C4288   1.401       .  A
C4283      H4290   1.084       .  S
C4284      C4285   1.417       .  A
C4285      C4286   1.402       .  A
C4285      N4292   1.432       .  S
C4286      C4287   1.401       .  A
C4286      H4291   1.084       .  S
C4287      C4288   1.407       .  A
C4288      N4289   1.438       .  S
N4289      H4293   1.046       .  S
N4289      H4294   1.046       .  S
N4292      H4295   1.045       .  S
N4292      H4296   1.045       .  S
C4297      C4298   1.402       .  A
C4297      C4302   1.400   1_554  A
C4297      H4304   1.084       .  S
C4298      C4299   1.412       .  A
C4299      C4300   1.404   1_554  A
C4299      N4306   1.438       .  S
C4300      C4301   1.404       .  A
C4300      H4305   1.082       .  S
C4301      C4302   1.413       .  A
C4302      N4303   1.433       .  S
N4303      H4307   1.046       .  S
N4303      H4308   1.046       .  S
N4306      H4309   1.046       .  S
N4306      H4310   1.046   1_554  S
C4311      C4312   1.407       .  A
C4311      C4316   1.401       .  A
C4311      H4318   1.084       .  S
C4312      C4313   1.407       .  A
C4313      C4314   1.406       .  A
C4313      N4320   1.438       .  S
C4314      C4315   1.412       .  A
C4314      H4319   1.083       .  S
C4315      C4316   1.408       .  A
C4316      N4317   1.432       .  S
N4317      H4321   1.045       .  S
N4317      H4322   1.046       .  S
N4320      H4323   1.046       .  S
N4320      H4324   1.046       .  S
C4325      C4326   1.403       .  A
C4325      C4330   1.402       .  A
C4325      H4332   1.084       .  S
C4326      C4327   1.407       .  A
C4327      C4328   1.404       .  A
C4327      N4334   1.432       .  S
C4328      C4329   1.406       .  A
C4328      H4333   1.084       .  S
C4329      C4330   1.417       .  A
C4330      N4331   1.432       .  S
N4331      H4335   1.044       .  S
N4331      H4336   1.046       .  S
N4334      H4337   1.046       .  S
N4334      H4338   1.045       .  S
C4339      C4340   1.398       .  A
C4339      C4344   1.402       .  A
C4339      H4346   1.084       .  S
C4340      C4341   1.414       .  A
C4341      C4342   1.404       .  A
C4341      N4348   1.433       .  S
C4342      C4343   1.405       .  A
C4342      H4347   1.084       .  S
C4343      C4344   1.417       .  A
C4344      N4345   1.439       .  S
N4345      H4349   1.046       .  S
N4345      H4350   1.045       .  S
N4348      H4351   1.045       .  S
N4348      H4352   1.046       .  S
