geometry optimzed in LAMMPS
_audit_creation_date              2020-12-01 
_audit_creation_method            'lammps2cif' 
_symmetry_space_group_name_H-M    'P1' 
_symmetry_Int_Tables_number       1 
_symmetry_cell_setting            triclinic 
loop_ 
_symmetry_equiv_pos_as_xyz 
  x,y,z 
_cell_length_a                    59.08746266 
_cell_length_b                    59.044249482681415 
_cell_length_c                    46.218028902707154 
_cell_angle_alpha                 90.04094336889672 
_cell_angle_beta                  89.96558909263379 
_cell_angle_gamma                 90.00956455281653 
loop_ 
_atom_site_label 
_atom_site_type_symbol 
_atom_site_fract_x 
_atom_site_fract_y 
_atom_site_fract_z 
_atom_site_charge 
O1          O  0.97520635  0.85005839  0.47692352    -0.72800
O2          O  0.02157418  0.79966369  0.47793672    -0.73800
O3          O  0.97353126  0.80214019  0.47596294    -0.62400
O4          O  0.02313407  0.84756222  0.47758528    -0.70900
O5          O  0.02143291  0.84777022  0.02362994    -0.70400
O6          O  0.97276003  0.79976712  0.01899589    -0.61700
O7          O  0.02111560  0.79997782  0.02032228    -0.74200
O8          O  0.97333825  0.84753349  0.02362505    -0.73000
Cu9        Cu  0.99839309  0.82482051  0.47547104     1.04600
Cu10       Cu  0.99714205  0.82363218  0.02328663     1.04300
C11         C  0.96612686  0.85672905  0.00044922     0.93400
C12         C  0.02896013  0.79237326  0.50224768     0.92500
C13         C  0.96496553  0.79405826  0.99419096     0.84600
C14         C  0.03022094  0.85554361  0.50155958     0.90900
O15         O  0.83825310  0.98745189  0.02830910    -0.72800
O16         O  0.78961757  0.03546072  0.02207071    -0.73800
O17         O  0.79014528  0.98709499  0.02798602    -0.62400
O18         O  0.83742947  0.03548112  0.02321134    -0.70900
O19         O  0.83843629  0.03142764  0.47260734    -0.70400
O20         O  0.78914741  0.98397878  0.47841477    -0.61700
O21         O  0.79056520  0.03240927  0.47296542    -0.74200
O22         O  0.83726523  0.98343624  0.47698628    -0.73000
Cu23       Cu  0.81378993  0.01147529  0.02704628     1.04600
Cu24       Cu  0.81376023  0.00766404  0.47355199     1.04300
C25         C  0.84585933  0.97780787  0.50127867     0.93400
C26         C  0.78298061  0.04198453  0.99704818     0.92500
C27         C  0.78251877  0.97747252  0.50347403     0.84600
C28         C  0.84568352  0.04125219  0.99877511     0.90900
O29         O  0.97869759  0.21247749  0.47430933    -0.72800
O30         O  0.02542977  0.16257275  0.47617412    -0.73800
O31         O  0.97739614  0.16475798  0.47595817    -0.62400
O32         O  0.02684872  0.21038790  0.47344106    -0.70900
O33         O  0.02719892  0.21400499  0.02138910    -0.70400
O34         O  0.97885321  0.16541408  0.02370202    -0.61700
O35         O  0.02721259  0.16583798  0.02399582    -0.74200
O36         O  0.97869049  0.21330178  0.02209413    -0.73000
Cu37       Cu  0.00210324  0.18750082  0.47332613     1.04600
Cu38       Cu  0.00302572  0.18972621  0.02448611     1.04300
C39         C  0.97064288  0.22001319  0.49817384     0.93400
C40         C  0.03428828  0.15685457  0.00052624     0.92500
C41         C  0.96968336  0.15757180  0.50002886     0.84600
C42         C  0.03556339  0.21978616  0.99691198     0.90900
O43         O  0.21046038  0.97815650  0.02800906    -0.72800
O44         O  0.16214494  0.02668861  0.03004391    -0.73800
O45         O  0.16262824  0.97855025  0.02790187    -0.62400
O46         O  0.21039541  0.02649524  0.03092518    -0.70900
O47         O  0.21144735  0.02864623  0.47993973    -0.70400
O48         O  0.16183914  0.98170631  0.47574144    -0.61700
O49         O  0.16346338  0.02983519  0.47937951    -0.74200
O50         O  0.20991060  0.98044852  0.47551320    -0.73000
Cu51       Cu  0.18643789  0.00245574  0.03088688     1.04600
Cu52       Cu  0.18669997  0.00526217  0.47595918     1.04300
C53         C  0.21789387  0.97108926  0.00359989     0.93400
C54         C  0.15565324  0.03639791  0.50376187     0.92500
C55         C  0.15510004  0.97171726  0.00354120     0.84600
C56         C  0.21896406  0.03478056  0.50470603     0.90900
C57         C  0.17538052  0.64782285  0.47385070     0.86600
C58         C  0.15536095  0.66443419  0.47592834    -0.53700
C59         C  0.15620380  0.67851030  0.49933215     0.09500
C60         C  0.17684240  0.67504767  0.01732323     0.20500
C61         C  0.19639613  0.66290350  0.47519180    -0.54400
C62         C  0.19732451  0.67708956  0.49851058     0.09600
C63         C  0.17472864  0.63531034  0.50291562    -0.53900
C64         C  0.17560797  0.64946452  0.02447335     0.10200
H65         H  0.14133629  0.66518279  0.46089998     0.14700
H66         H  0.17734252  0.68598218  0.03683755     0.00400
H67         H  0.20905168  0.66297149  0.45812746     0.15000
H68         H  0.17370009  0.61700696  0.50475645     0.14800
C69         C  0.35311341  0.81569783  0.02485303     0.86600
C70         C  0.33908365  0.83745031  0.02259039    -0.53700
C71         C  0.32448641  0.83790371  0.99978887     0.09500
C72         C  0.32461795  0.81625299  0.47993528     0.20500
C73         C  0.33543579  0.79652643  0.02470759    -0.54400
C74         C  0.32119207  0.79648561  0.00135175     0.09600
C75         C  0.36484874  0.81325505  0.99529895    -0.53900
C76         C  0.34997998  0.81411626  0.47246323     0.10200
H77         H  0.34024142  0.85119493  0.03816451     0.14700
H78         H  0.31346285  0.81636319  0.46062495     0.00400
H79         H  0.33416471  0.78377339  0.04131589     0.15000
H80         H  0.38305839  0.81176651  0.99272648     0.14800
N81         N  0.50039144  0.83448027  0.20910509    -0.36500
N82         N  0.46194599  0.83139693  0.24919985    -0.57100
N83         N  0.49281801  0.83584383  0.29788463    -0.36500
N84         N  0.53138843  0.83610282  0.25784013    -0.57100
C85         C  0.48364602  0.82910221  0.19031702     0.27100
C86         C  0.52036781  0.83186121  0.19500585     0.27100
C87         C  0.47344879  0.83048504  0.31205357     0.27100
C88         C  0.51017637  0.83260509  0.31656758     0.27100
C89         C  0.45035429  0.83186767  0.22398826     0.35700
C90         C  0.44639495  0.83268394  0.27065518     0.35700
C91         C  0.54646179  0.83968495  0.23628069     0.35700
C92         C  0.54243706  0.84026519  0.28287203     0.35700
C93         C  0.49311991  0.82367426  0.16370029    -0.21800
C94         C  0.51620144  0.82526473  0.16671484    -0.21800
C95         C  0.47854402  0.82426048  0.34023158    -0.21800
C96         C  0.50166105  0.82548659  0.34303655    -0.21800
C97         C  0.42730009  0.83313673  0.22953850    -0.22900
C98         C  0.42481521  0.83374538  0.25904726    -0.22800
C99         C  0.56716483  0.84613999  0.24765436    -0.22900
C100        C  0.56459133  0.84662369  0.27715203    -0.22800
C101        C  0.46002318  0.82964726  0.19604637    -0.18200
C102        C  0.54227649  0.83582283  0.20657744    -0.18200
C103        C  0.53344278  0.83662056  0.31086660    -0.18200
C104        C  0.45120732  0.83133314  0.30058350    -0.18200
H105        H  0.48439142  0.81901148  0.14400928     0.14700
H106        H  0.52850137  0.82196349  0.14987235     0.14700
H107        H  0.46684137  0.81910732  0.35700966     0.14700
H108        H  0.51110452  0.82150174  0.36243226     0.14700
H109        H  0.41361228  0.83325154  0.21399509     0.13000
H110        H  0.40890140  0.83444517  0.27062582     0.13000
H111        H  0.58257428  0.84990373  0.23593009     0.13000
H112        H  0.57767462  0.85079195  0.29264662     0.13000
H113        H  0.49818225  0.84144425  0.22947856     0.26300
H114        H  0.49396488  0.84331850  0.27763964     0.26300
C115        C  0.63792076  0.83076869  0.48508175     0.86600
C116        C  0.65264316  0.85199174  0.48821480    -0.53700
C117        C  0.66846351  0.85083328  0.50967663     0.09500
C118        C  0.66789830  0.82767606  0.02515758     0.20500
C119        C  0.65471770  0.81124711  0.48187826    -0.54400
C120        C  0.67031806  0.80943795  0.50355895     0.09600
C121        C  0.62766045  0.82744532  0.51548286    -0.53900
C122        C  0.64324357  0.82623302  0.03604361     0.10200
H123        H  0.65102887  0.86658071  0.47406577     0.14700
H124        H  0.68059125  0.82648208  0.04277954     0.00400
H125        H  0.65445833  0.80009603  0.46321221     0.15000
H126        H  0.60977259  0.82687490  0.52036077     0.14800
C127        C  0.81172786  0.65863799  0.01696455     0.86600
C128        C  0.83180009  0.67524177  0.01470165    -0.53700
C129        C  0.83132640  0.68862774  0.99064697     0.09500
C130        C  0.81144412  0.68455877  0.47258704     0.20500
C131        C  0.79092324  0.67396342  0.01477849    -0.54400
C132        C  0.79025437  0.68743916  0.99073634     0.09600
C133        C  0.81237606  0.64547155  0.98846248    -0.53900
C134        C  0.81193598  0.65898075  0.46554372     0.10200
H135        H  0.84527573  0.67702188  0.03034504     0.14700
H136        H  0.81133177  0.69548156  0.45306691     0.00400
H137        H  0.77823823  0.67475125  0.03176799     0.15000
H138        H  0.81308310  0.62709440  0.98753552     0.14800
C139        C  0.35645068  0.18470245  0.47946204     0.86600
C140        C  0.34200007  0.16352960  0.48436260    -0.53700
C141        C  0.32880207  0.16430763  0.50858257     0.09500
C142        C  0.33239676  0.18623905  0.02849840     0.20500
C143        C  0.33908358  0.20413287  0.47966110    -0.54400
C144        C  0.32612730  0.20552951  0.50409054     0.09600
C145        C  0.36973955  0.18783963  0.50765657    -0.53900
C146        C  0.35820947  0.18737454  0.03472995     0.10200
H147        H  0.34175554  0.14929381  0.46946202     0.14700
H148        H  0.32154787  0.18706962  0.04807858     0.00400
H149        H  0.33627538  0.21570046  0.46197891     0.15000
H150        H  0.38809805  0.18876593  0.50813759     0.14800
C151        C  0.18667973  0.36021553  0.01966824     0.86600
C152        C  0.16628694  0.34415143  0.01895229    -0.53700
C153        C  0.16689277  0.32852399  0.99715511     0.09500
C154        C  0.18521646  0.33012948  0.47605834     0.20500
C155        C  0.20736584  0.34463736  0.01988275    -0.54400
C156        C  0.20814403  0.32893422  0.99810816     0.09600
C157        C  0.18667575  0.37097179  0.98937892    -0.53900
C158        C  0.18429989  0.35503481  0.46604305     0.10200
H159        H  0.15259001  0.34489893  0.03461357     0.14700
H160        H  0.18487897  0.31787804  0.45786206     0.00400
H161        H  0.21973802  0.34533543  0.03720677     0.15000
H162        H  0.18544144  0.38892832  0.98502968     0.14800
N163        N  0.19343383  0.50541165  0.20348376    -0.36500
N164        N  0.18908753  0.53795834  0.24931308    -0.57100
N165        N  0.19060482  0.50087514  0.29201217    -0.36500
N166        N  0.19290496  0.46830994  0.24597094    -0.57100
C167        C  0.18763529  0.52410402  0.18814744     0.27100
C168        C  0.18934781  0.48725569  0.18642244     0.27100
C169        C  0.18434672  0.51849359  0.30891954     0.27100
C170        C  0.18624793  0.48158691  0.30696671     0.27100
C171        C  0.19231086  0.55254598  0.22708205     0.35700
C172        C  0.19123629  0.55014521  0.27389714     0.35700
C173        C  0.19777548  0.45648178  0.22178472     0.35700
C174        C  0.19612976  0.45403251  0.26843817     0.35700
C175        C  0.17992859  0.51771623  0.16102881    -0.21800
C176        C  0.18103669  0.49448519  0.15991640    -0.21800
C177        C  0.17629320  0.51029476  0.33514644    -0.21800
C178        C  0.17733901  0.48705263  0.33381186    -0.21800
C179        C  0.19643041  0.57411905  0.23755894    -0.22900
C180        C  0.19565053  0.57263939  0.26720259    -0.22800
C181        C  0.20419718  0.43458766  0.22887184    -0.22900
C182        C  0.20317646  0.43304338  0.25849497    -0.22800
C183        C  0.19002054  0.54682285  0.19751024    -0.18200
C184        C  0.19414472  0.46442733  0.19339901    -0.18200
C185        C  0.19096123  0.45923000  0.29751432    -0.18200
C186        C  0.18717652  0.54174556  0.30211717    -0.18200
H187        H  0.17413976  0.52865929  0.14377722     0.14700
H188        H  0.17635365  0.48410019  0.14156337     0.14700
H189        H  0.17041929  0.51997227  0.35355413     0.14700
H190        H  0.17228496  0.47551515  0.35081954     0.14700
H191        H  0.19932125  0.58939289  0.22516584     0.13000
H192        H  0.19766648  0.58666547  0.28205754     0.13000
H193        H  0.20861527  0.42100056  0.21418423     0.13000
H194        H  0.20674179  0.41807159  0.27119915     0.13000
H195        H  0.20203225  0.50509305  0.22309518     0.26300
H196        H  0.19960144  0.50217774  0.27277936     0.26300
N197        N  0.50319381  0.17624000  0.21261848    -0.36500
N198        N  0.54136666  0.17694268  0.25364427    -0.57100
N199        N  0.50909574  0.18031249  0.30074939    -0.36500
N200        N  0.47110269  0.17704827  0.25961411    -0.57100
C201        C  0.52068914  0.17158754  0.19467561     0.27100
C202        C  0.48378443  0.17232890  0.19773705     0.27100
C203        C  0.52856301  0.17796472  0.31602315     0.27100
C204        C  0.49165307  0.17679097  0.31924159     0.27100
C205        C  0.55291770  0.17934939  0.22855056     0.35700
C206        C  0.55601863  0.18195435  0.27526771     0.35700
C207        C  0.45633875  0.17991435  0.23750602     0.35700
C208        C  0.45938795  0.18071208  0.28430056     0.35700
C209        C  0.51231050  0.16450962  0.16813148    -0.21800
C210        C  0.48909680  0.16516604  0.16997269    -0.21800
C211        C  0.52332452  0.17332925  0.34467966    -0.21800
C212        C  0.50014715  0.17234907  0.34662540    -0.21800
C213        C  0.57513859  0.18544145  0.23433055    -0.22900
C214        C  0.57713902  0.18690382  0.26387144    -0.22800
C215        C  0.43504840  0.18501850  0.24825020    -0.22900
C216        C  0.43697818  0.18555237  0.27784793    -0.22800
C217        C  0.54390418  0.17572728  0.20048185    -0.18200
C218        C  0.46152591  0.17675792  0.20784975    -0.18200
C219        C  0.46826522  0.17880220  0.31267613    -0.18200
C220        C  0.55083382  0.18128290  0.30520550    -0.18200
H221        H  0.52194104  0.15994351  0.14906865     0.14700
H222        H  0.47754591  0.16121159  0.15254526     0.14700
H223        H  0.53487061  0.17106381  0.36258248     0.14700
H224        H  0.49064448  0.16909885  0.36621431     0.14700
H225        H  0.58856295  0.18857160  0.21890853     0.13000
H226        H  0.59240678  0.19122225  0.27555645     0.13000
H227        H  0.41965501  0.18782931  0.23609996     0.13000
H228        H  0.42338188  0.18905655  0.29290080     0.13000
H229        H  0.50450496  0.18459307  0.23219245     0.26300
H230        H  0.50771803  0.18646995  0.27992068     0.26300
C231        C  0.64964936  0.19603203  0.02921853     0.86600
C232        C  0.66438255  0.17508842  0.02454261    -0.53700
C233        C  0.67758527  0.17561393  0.00031780     0.09500
C234        C  0.67658805  0.19782810  0.48532442     0.20500
C235        C  0.66684580  0.21562050  0.02966276    -0.54400
C236        C  0.68022455  0.21711992  0.00554212     0.09600
C237        C  0.63670437  0.19916677  0.00078588    -0.53900
C238        C  0.65096261  0.19988618  0.47914418     0.06600
H239        H  0.66438252  0.16091132  0.03950219     0.14700
H240        H  0.68728489  0.19854838  0.46559261     0.00400
H241        H  0.66920124  0.22703169  0.04765636     0.15000
H242        H  0.61834233  0.19964178  0.99989054     0.14800
C243        C  0.82445102  0.36560847  0.46652553     0.86600
C244        C  0.84459759  0.34906033  0.46754740    -0.53700
C245        C  0.84510630  0.33577723  0.49164662     0.09500
C246        C  0.82464165  0.34020607  0.01407048     0.20500
C247        C  0.80370871  0.35029162  0.47015230    -0.54400
C248        C  0.80403005  0.33679977  0.49421128     0.09600
C249        C  0.82619311  0.37885770  0.49491292    -0.53900
C250        C  0.82642982  0.36591887  0.02048210     0.10200
H251        H  0.85744934  0.34723948  0.45105675     0.14700
H252        H  0.82503725  0.32952063  0.03375886     0.00400
H253        H  0.79031233  0.34956961  0.45410146     0.15000
H254        H  0.82646389  0.39724745  0.49556281     0.14800
N255        N  0.81027312  0.51574457  0.28690035    -0.36500
N256        N  0.80603199  0.54780639  0.24000443    -0.57100
N257        N  0.80882951  0.50994488  0.19870773    -0.36500
N258        N  0.81088102  0.47780844  0.24543567    -0.57100
C259        C  0.80627490  0.53488717  0.30230631     0.27100
C260        C  0.80806269  0.49799045  0.30516436     0.27100
C261        C  0.80295369  0.52712743  0.18093258     0.27100
C262        C  0.80606191  0.49038641  0.18375135     0.27100
C263        C  0.80923900  0.56273720  0.26186726     0.35700
C264        C  0.80815473  0.55960156  0.21510337     0.35700
C265        C  0.81508692  0.46630266  0.27008677     0.35700
C266        C  0.81518331  0.46338774  0.22333429     0.35700
C267        C  0.80193500  0.52913723  0.33089425    -0.21800
C268        C  0.80284476  0.50593321  0.33261833    -0.21800
C269        C  0.79634449  0.51842349  0.15436819    -0.21800
C270        C  0.79847120  0.49530066  0.15605500    -0.21800
C271        C  0.81287712  0.58423162  0.25075230    -0.22900
C272        C  0.81237092  0.58221520  0.22116669    -0.22800
C273        C  0.82170500  0.44432964  0.26363403    -0.22900
C274        C  0.82175102  0.44248415  0.23402309    -0.22800
C275        C  0.80785136  0.55741828  0.29170677    -0.18200
C276        C  0.81215552  0.47492751  0.29840486    -0.18200
C277        C  0.81188941  0.46845587  0.19373240    -0.18200
C278        C  0.80540704  0.55050326  0.18697434    -0.18200
H279        H  0.79877893  0.54038493  0.34891970     0.14700
H280        H  0.80044254  0.49607077  0.35211305     0.14700
H281        H  0.79108989  0.52780863  0.13541712     0.14700
H282        H  0.79516596  0.48360003  0.13855710     0.14700
H283        H  0.81557207  0.59979702  0.26262063     0.13000
H284        H  0.81471612  0.59590368  0.20589677     0.13000
H285        H  0.82599187  0.43097407  0.27869533     0.13000
H286        H  0.82589854  0.42739372  0.22182654     0.13000
H287        H  0.81666370  0.51490738  0.26607448     0.26300
H288        H  0.81721123  0.51174039  0.21827607     0.26300
C289        C  0.81099926  0.38322396  0.09750305    -0.27500
C290        C  0.82404667  0.40300005  0.10103392     0.02100
C291        C  0.83952550  0.40890975  0.07902597     0.30200
C292        C  0.84125159  0.39565671  0.05401069    -0.19300
C293        C  0.82727491  0.37666362  0.04971984    -0.28700
C294        C  0.81241011  0.37019754  0.07206893     0.44200
C295        C  0.82062447  0.41807046  0.12671988     0.05400
O296        O  0.85229647  0.42825776  0.08100252    -0.57200
H297        H  0.85296666  0.40087755  0.03724692     0.18300
O298        O  0.79785189  0.35234947  0.06835558    -0.63900
H299        H  0.79917190  0.37816419  0.11420107     0.16800
C300        C  0.79873216  0.42501790  0.13534457     0.29000
C301        C  0.79601567  0.44053480  0.15808444    -0.24800
C302        C  0.81488893  0.45004789  0.17191013    -0.24100
C303        C  0.83669280  0.44289190  0.16376859     0.40500
C304        C  0.83942441  0.42677598  0.14175616    -0.26600
O305        O  0.77988100  0.41750506  0.12094752    -0.58500
H306        H  0.77913857  0.44593400  0.16413905     0.16100
O307        O  0.85546283  0.45177963  0.17702830    -0.59900
H308        H  0.85637468  0.42144210  0.13598755     0.14600
H309        H  0.80444211  0.33976442  0.07977579     0.46400
H310        H  0.77785327  0.42819509  0.10461175     0.41800
H311        H  0.85948328  0.46534701  0.16547621     0.45300
H312        H  0.84278136  0.44038235  0.07250663     0.36700
C313        C  0.80238321  0.41216774  0.41586970    -0.27500
C314        C  0.81781695  0.41140104  0.39292218     0.02100
C315        C  0.83530348  0.39530267  0.39335850     0.30200
C316        C  0.83749436  0.38051276  0.41677254    -0.19300
C317        C  0.82225258  0.38127341  0.44027799    -0.28700
C318        C  0.80434496  0.39723796  0.43922125     0.44200
C319        C  0.81596891  0.42779562  0.36889335     0.05400
O320        O  0.85043132  0.39388146  0.37089797    -0.57200
H321        H  0.85123368  0.36859044  0.41580758     0.18300
O322        O  0.78900678  0.39884064  0.46144367    -0.63900
H323        H  0.78892424  0.42462941  0.41590816     0.16800
C324        C  0.79621948  0.42915413  0.35193618     0.29000
C325        C  0.79517469  0.44447880  0.32887664    -0.24800
C326        C  0.81355703  0.45871591  0.32278629    -0.24100
C327        C  0.83315233  0.45757953  0.33992234     0.40500
C328        C  0.83431107  0.44211299  0.36273342    -0.26600
O329        O  0.77829092  0.41493663  0.35702285    -0.58500
H330        H  0.78004397  0.44526912  0.31568254     0.16100
O331        O  0.85139003  0.47120153  0.33407395    -0.59900
H332        H  0.84954214  0.44132392  0.37574041     0.14600
H333        H  0.77525931  0.39089551  0.45447003     0.46400
H334        H  0.76698829  0.42426916  0.36750198     0.41800
H335        H  0.84954279  0.48455671  0.34688381     0.45300
H336        H  0.84304132  0.38399756  0.35634177     0.36700
C337        C  0.71048329  0.27401948  0.01271562    -0.27500
C338        C  0.73369758  0.26813047  0.50204037     0.02100
C339        C  0.73715875  0.24644898  0.48987025     0.30200
C340        C  0.71997090  0.23001509  0.49112165    -0.19300
C341        C  0.69748841  0.23555982  0.00229786    -0.28700
C342        C  0.69329711  0.25770659  0.01279888     0.44200
C343        C  0.75160472  0.28597098  0.50141146     0.05400
O344        O  0.75723457  0.24113991  0.47660133    -0.57200
H345        H  0.72322414  0.21337740  0.48223866     0.18300
O346        O  0.67237435  0.26378556  0.02306914    -0.63900
H347        H  0.70698940  0.29053163  0.02191723     0.16800
C348        C  0.74661790  0.30815745  0.49208135     0.29000
C349        C  0.76353763  0.32470336  0.49159844    -0.24800
C350        C  0.78595933  0.31957364  0.49938723    -0.24100
C351        C  0.78917587  0.29833645  0.01026082     0.40500
C352        C  0.77185600  0.28204262  0.01111762    -0.26600
O353        O  0.72536317  0.31376833  0.48255696    -0.58500
H354        H  0.75914114  0.34157224  0.48431385     0.16100
O355        O  0.81063183  0.29203563  0.01810960    -0.59900
H356        H  0.77574440  0.26522900  0.01904052     0.14600
H357        H  0.66322412  0.26714786  0.00561093     0.46400
H358        H  0.72520531  0.30971347  0.46173149     0.41800
H359        H  0.81783498  0.28654472  0.00003284     0.45300
H360        H  0.75527027  0.24577750  0.45613948     0.36700
C361        C  0.59439655  0.20929666  0.35434581    -0.27500
C362        C  0.60171435  0.19100176  0.37141405     0.02100
C363        C  0.59320263  0.16916476  0.36532793     0.30200
C364        C  0.57747316  0.16601402  0.34288699    -0.19300
C365        C  0.56957748  0.18445675  0.32660895    -0.28700
C366        C  0.57840351  0.20616979  0.33226524     0.44200
C367        C  0.61640175  0.19522951  0.39715119     0.05400
O368        O  0.59870233  0.15116292  0.38271999    -0.57200
H369        H  0.57062067  0.14926227  0.33901431     0.18300
O370        O  0.57117456  0.22452096  0.31662384    -0.63900
H371        H  0.60068199  0.22620119  0.35867497     0.16800
C372        C  0.63650240  0.18288734  0.40206093     0.29000
C373        C  0.64835550  0.18539853  0.42822345    -0.24800
C374        C  0.64061564  0.20034687  0.44971429    -0.24100
C375        C  0.62157112  0.21401018  0.44375670     0.40500
C376        C  0.60960605  0.21128776  0.41783342    -0.26600
O377        O  0.64446301  0.16797576  0.38171111    -0.58500
H378        H  0.66306524  0.17490326  0.43218844     0.16100
O379        O  0.61411725  0.22971901  0.46345554    -0.59900
H380        H  0.59445969  0.22125452  0.41431910     0.14600
H381        H  0.55748888  0.23003897  0.32686149     0.46400
H382        H  0.65315955  0.17737714  0.36783916     0.41800
H383        H  0.62406970  0.24307267  0.46070983     0.45300
H384        H  0.60806388  0.14100702  0.37050802     0.36700
C385        C  0.59097996  0.16508917  0.14575874    -0.27500
C386        C  0.58803091  0.18354853  0.12700511     0.02100
C387        C  0.57035865  0.19898798  0.13208889     0.30200
C388        C  0.55614542  0.19610767  0.15600860    -0.19300
C389        C  0.55930886  0.17794215  0.17513733    -0.28700
C390        C  0.57671689  0.16219951  0.16972560     0.44200
C391        C  0.60372259  0.18689126  0.10247000     0.05400
O392        O  0.56648429  0.21650708  0.11323245    -0.57200
H393        H  0.54259570  0.20813146  0.15972973     0.18300
O394        O  0.58008184  0.14418441  0.18792856    -0.63900
H395        H  0.60452940  0.15308354  0.14196145     0.16800
C396        C  0.61864492  0.20537705  0.10203857     0.29000
C397        C  0.63342718  0.20842101  0.07868104    -0.24800
C398        C  0.63361549  0.19320942  0.05510604    -0.24100
C399        C  0.61821935  0.17476025  0.05569473     0.40500
C400        C  0.60359641  0.17170615  0.07924773    -0.26600
O401        O  0.61939572  0.22017915  0.12493015    -0.58500
H402        H  0.64441357  0.22293101  0.07960287     0.16100
O403        O  0.61702929  0.15983425  0.03295329    -0.59900
H404        H  0.59194559  0.15752839  0.07924843     0.14600
H405        H  0.56973719  0.13218102  0.18082219     0.46400
H406        H  0.61264040  0.23445713  0.11766359     0.41800
H407        H  0.62418819  0.14568231  0.03999751     0.45300
H408        H  0.57066766  0.23045515  0.12392992     0.36700
C409        C  0.17022734  0.40686572  0.33795520    -0.27500
C410        C  0.18596127  0.40544300  0.36064123     0.02100
C411        C  0.20349917  0.42158964  0.36225020     0.30200
C412        C  0.20516321  0.43876204  0.34142871    -0.19300
C413        C  0.18937710  0.44028583  0.31885465    -0.28700
C414        C  0.17183696  0.42412856  0.31718113     0.44200
C415        C  0.18303198  0.38851655  0.38414870     0.05400
O416        O  0.21872776  0.42110523  0.38462987    -0.57200
H417        H  0.21861861  0.45115962  0.34311886     0.18300
O418        O  0.15605432  0.42524135  0.29548336    -0.63900
H419        H  0.15648912  0.39475575  0.33662480     0.16800
C420        C  0.16431593  0.38992414  0.40291812     0.29000
C421        C  0.16398613  0.37723342  0.42848640    -0.24800
C422        C  0.18208892  0.36288598  0.43568857    -0.24100
C423        C  0.19974965  0.35981189  0.41567372     0.40500
C424        C  0.20028817  0.37280552  0.39021696    -0.26600
O425        O  0.14703573  0.40484341  0.39749677    -0.58500
H426        H  0.15020639  0.37966749  0.44366305     0.16100
O427        O  0.21760459  0.34587041  0.42208009    -0.59900
H428        H  0.21473855  0.37145155  0.37588202     0.14600
H429        H  0.14473080  0.43647021  0.30220514     0.46400
H430        H  0.15165917  0.41920584  0.40693768     0.41800
H431        H  0.21313208  0.33076099  0.41464650     0.45300
H432        H  0.21145745  0.42978893  0.40048704     0.36700
C433        C  0.18582619  0.38083598  0.09853736    -0.27500
C434        C  0.18931708  0.40414868  0.09560272     0.02100
C435        C  0.19149562  0.41351406  0.06781576     0.30200
C436        C  0.19024999  0.39960124  0.04337464    -0.19300
C437        C  0.18673282  0.37603103  0.04597442    -0.28700
C438        C  0.18481369  0.36679843  0.07418697     0.44200
C439        C  0.19095353  0.41857916  0.12165077     0.05400
O440        O  0.19505374  0.43631188  0.06429517    -0.57200
H441        H  0.19271491  0.40765032  0.02272202     0.18300
O442        O  0.18197886  0.34394718  0.07822265    -0.63900
H443        H  0.18437759  0.37338280  0.11987635     0.16800
C444        C  0.17283246  0.42002574  0.14136027     0.29000
C445        C  0.17430098  0.43460850  0.16513479    -0.24800
C446        C  0.19377013  0.44768794  0.16959799    -0.24100
C447        C  0.21214827  0.44578657  0.15045202     0.40500
C448        C  0.21064581  0.43133202  0.12656629    -0.26600
O449        O  0.15317934  0.40823074  0.13661632    -0.58500
H450        H  0.16002934  0.43616918  0.17973588     0.16100
O451        O  0.23135367  0.45843525  0.15453659    -0.59900
H452        H  0.22479119  0.43017121  0.11170849     0.14600
H453        H  0.19715609  0.33809918  0.08349735     0.46400
H454        H  0.15381602  0.39514361  0.15002847     0.41800
H455        H  0.24047798  0.44980614  0.16876285     0.45300
H456        H  0.17975332  0.44321032  0.06450116     0.36700
C457        C  0.29713471  0.26240031  0.49549892    -0.27500
C458        C  0.27693396  0.25822903  0.00799452     0.02100
C459        C  0.27205195  0.23642124  0.01902669     0.30200
C460        C  0.28902052  0.21967683  0.01998225    -0.19300
C461        C  0.30913307  0.22408566  0.50760609    -0.28700
C462        C  0.31415143  0.24613162  0.49764099     0.44200
C463        C  0.25921205  0.27624033  0.00511783     0.05400
O464        O  0.25073578  0.23118264  0.02867152    -0.57200
H465        H  0.28471148  0.20286526  0.02749958     0.18300
O466        O  0.33570801  0.25198446  0.48950232    -0.63900
H467        H  0.30132878  0.27860438  0.48594065     0.16800
C468        C  0.26359038  0.29867572  0.01399135     0.29000
C469        C  0.24746959  0.31565979  0.00961761    -0.24800
C470        C  0.22599900  0.31081175  0.99790543    -0.24100
C471        C  0.21908914  0.28760485  0.48776307     0.40500
C472        C  0.23575737  0.27075084  0.49077378    -0.26600
O473        O  0.28346174  0.30421242  0.02760826    -0.58500
H474        H  0.25177720  0.33273341  0.01614821     0.16100
O475        O  0.19790043  0.28141296  0.47866523    -0.59900
H476        H  0.23169264  0.25353854  0.48455641     0.14600
H477        H  0.34397978  0.25462109  0.50786790     0.46400
H478        H  0.28083302  0.30083429  0.04835696     0.41800
H479        H  0.18967395  0.27699670  0.49649237     0.45300
H480        H  0.25014762  0.23683933  0.04886541     0.36700
C481        C  0.37505245  0.17442098  0.11303132    -0.27500
C482        C  0.39526793  0.18689368  0.11569076     0.02100
C483        C  0.40194935  0.20085807  0.09248386     0.30200
C484        C  0.38890938  0.20180627  0.06719715    -0.19300
C485        C  0.36917176  0.18871492  0.06394336    -0.28700
C486        C  0.36205347  0.17524864  0.08747187     0.44200
C487        C  0.41016437  0.18419114  0.14166180     0.05400
O488        O  0.42222074  0.21220307  0.09334184    -0.57200
H489        H  0.39478410  0.21236270  0.04956385     0.18300
O490        O  0.34307805  0.16199740  0.08531351    -0.63900
H491        H  0.36961519  0.16355046  0.13058354     0.16800
C492        C  0.41843866  0.20317316  0.15697737     0.29000
C493        C  0.43486180  0.20044739  0.17860238    -0.24800
C494        C  0.44288008  0.17886658  0.18608450    -0.24100
C495        C  0.43347561  0.15975136  0.17233185     0.40500
C496        C  0.41743034  0.16248688  0.15014930    -0.26600
O497        O  0.41078406  0.22454069  0.15075273    -0.58500
H498        H  0.44156811  0.21528187  0.18942832     0.16100
O499        O  0.44055734  0.13839045  0.17960985    -0.59900
H500        H  0.41119326  0.14764063  0.13890909     0.14600
H501        H  0.34860644  0.14701720  0.07866911     0.46400
H502        H  0.39656881  0.22621990  0.16196267     0.41800
H503        H  0.43109115  0.13400458  0.19642234     0.45300
H504        H  0.41827350  0.22853089  0.09345976     0.36700
C505        C  0.40398126  0.16402047  0.42890166    -0.27500
C506        C  0.40381076  0.18031627  0.40691097     0.02100
C507        C  0.38743644  0.19750432  0.40749880     0.30200
C508        C  0.37183757  0.19862406  0.43020962    -0.19300
C509        C  0.37220237  0.18277548  0.45310898    -0.28700
C510        C  0.38844332  0.16512936  0.45181249     0.44200
C511        C  0.42093573  0.17954992  0.38354861     0.05400
O512        O  0.38621563  0.21303693  0.38546130    -0.57200
H513        H  0.35996165  0.21238220  0.42936611     0.18300
O514        O  0.38982097  0.14932809  0.47350202    -0.63900
H515        H  0.41653455  0.15064544  0.42863427     0.16800
C516        C  0.43625793  0.19758190  0.37961131     0.29000
C517        C  0.45149122  0.19722196  0.35643988    -0.24800
C518        C  0.45198360  0.17880617  0.33726485    -0.24100
C519        C  0.43719450  0.16042933  0.34175448     0.40500
C520        C  0.42173805  0.16091663  0.36472893    -0.26600
O521        O  0.43646597  0.21561999  0.39832619    -0.58500
H522        H  0.46300600  0.21130762  0.35340700     0.16100
O523        O  0.43754411  0.14209182  0.32353622    -0.59900
H524        H  0.41014125  0.14688503  0.36764825     0.14600
H525        H  0.38265930  0.13546742  0.46554860     0.46400
H526        H  0.44583066  0.21062381  0.41493687     0.41800
H527        H  0.44977004  0.13219817  0.33102500     0.45300
H528        H  0.39184278  0.22745615  0.39380552     0.36700
C529        C  0.82923911  0.62051329  0.40384404    -0.27500
C530        C  0.81224376  0.62462276  0.38328527     0.02100
C531        C  0.79629521  0.64194921  0.38884918     0.30200
C532        C  0.79696338  0.65403096  0.41509182    -0.19300
C533        C  0.81339289  0.64905209  0.43604560    -0.28700
C534        C  0.83004695  0.63268029  0.42975754     0.44200
C535        C  0.81060129  0.60956601  0.35738250     0.05400
O536        O  0.77963499  0.64679695  0.36916519    -0.57200
H537        H  0.78407735  0.66660712  0.41958357     0.18300
O538        O  0.84684010  0.62788851  0.44930501    -0.63900
H539        H  0.84151274  0.60717071  0.40035544     0.16800
C540        C  0.82986141  0.60434716  0.34053601     0.29000
C541        C  0.82860000  0.58778099  0.31879165    -0.24800
C542        C  0.80825027  0.57635986  0.31317864    -0.24100
C543        C  0.78872289  0.58241968  0.32886789     0.40500
C544        C  0.79004387  0.59864035  0.35098540    -0.26600
O545        O  0.84987998  0.61564307  0.34490364    -0.58500
H546        H  0.84366205  0.58356848  0.30653423     0.16100
O547        O  0.76851897  0.57172960  0.32370053    -0.59900
H548        H  0.77510448  0.60209975  0.36384015     0.14600
H549        H  0.85835635  0.63991030  0.44648642     0.46400
H550        H  0.86049681  0.60422968  0.35287160     0.41800
H551        H  0.76144037  0.58035796  0.30769090     0.45300
H552        H  0.78687809  0.65691703  0.35476605     0.36700
C553        C  0.79095245  0.61260217  0.06926727    -0.27500
C554        C  0.80771405  0.61262598  0.09062257     0.02100
C555        C  0.82584277  0.62792139  0.08846235     0.30200
C556        C  0.82722021  0.64278099  0.06501390    -0.19300
C557        C  0.81052782  0.64286801  0.04319452    -0.28700
C558        C  0.79215781  0.62754935  0.04584450     0.44200
C559        C  0.80649501  0.59637441  0.11486867     0.05400
O560        O  0.84240931  0.62846497  0.10923991    -0.57200
H561        H  0.84158152  0.65397054  0.06449790     0.18300
O562        O  0.77554438  0.62665344  0.02512542    -0.63900
H563        H  0.77700488  0.60072741  0.07054031     0.16800
C564        C  0.78794423  0.59626321  0.13401648     0.29000
C565        C  0.78770790  0.58132901  0.15754011    -0.24800
C566        C  0.80572785  0.56627788  0.16199559    -0.24100
C567        C  0.82404658  0.56610840  0.14252787     0.40500
C568        C  0.82433416  0.58107461  0.11915697    -0.26600
O569        O  0.77047679  0.61131532  0.13055847    -0.58500
H570        H  0.77352083  0.58151582  0.17240100     0.16100
O571        O  0.84167439  0.55126520  0.14614236    -0.59900
H572        H  0.83855693  0.58080664  0.10434614     0.14600
H573        H  0.76231286  0.63448840  0.03375330     0.46400
H574        H  0.75814457  0.60249381  0.12134617     0.41800
H575        H  0.85217132  0.55890423  0.15974669     0.45300
H576        H  0.83644180  0.63854158  0.12462920     0.36700
C577        C  0.76059791  0.74431114  0.48217522    -0.27500
C578        C  0.73822106  0.73854646  0.99139415     0.02100
C579        C  0.73340425  0.71592314  0.99899462     0.30200
C580        C  0.75004473  0.69927884  0.99636418    -0.19300
C581        C  0.77206820  0.70469765  0.98720968    -0.28700
C582        C  0.77750084  0.72760584  0.48059280     0.44200
C583        C  0.72080452  0.75659700  0.99498484     0.05400
O584        O  0.71271597  0.70996013  0.01011748    -0.57200
H585        H  0.74590246  0.68210896  0.00271530     0.18300
O586        O  0.79856575  0.73349682  0.47069460    -0.63900
H587        H  0.76438891  0.76123968  0.47458291     0.16800
C588        C  0.72562978  0.77720758  0.00919450     0.29000
C589        C  0.70867966  0.79373124  0.01238140    -0.24800
C590        C  0.68758674  0.79091648  0.50359511    -0.24100
C591        C  0.68247196  0.76930832  0.49205612     0.40500
C592        C  0.69953580  0.75326216  0.48815338    -0.26600
O593        O  0.74660217  0.78100941  0.02097477    -0.58500
H594        H  0.71294319  0.80946927  0.02297988     0.16100
O595        O  0.66072308  0.76337309  0.48496889    -0.59900
H596        H  0.69522971  0.73723199  0.47815851     0.14600
H597        H  0.80606369  0.74110621  0.48723901     0.46400
H598        H  0.75383049  0.79248548  0.00832039     0.41800
H599        H  0.65333671  0.75953774  0.50360976     0.45300
H600        H  0.71389170  0.71277505  0.03122048     0.36700
C601        C  0.59361291  0.81378858  0.16539152    -0.27500
C602        C  0.59709484  0.83102626  0.14490028     0.02100
C603        C  0.58333918  0.85055286  0.14606628     0.30200
C604        C  0.56592060  0.85219211  0.16663185    -0.19300
C605        C  0.56208048  0.83468423  0.18651481    -0.28700
C606        C  0.57636297  0.81558312  0.18616947     0.44200
C607        C  0.61291616  0.82734529  0.12019565     0.05400
O608        O  0.58567793  0.86734223  0.12578432    -0.57200
H609        H  0.55497314  0.86691058  0.16658554     0.18300
O610        O  0.57321243  0.79834401  0.20563478    -0.63900
H611        H  0.60393549  0.79863178  0.16477252     0.16800
C612        C  0.63007528  0.84306118  0.11317976     0.29000
C613        C  0.64148187  0.84150984  0.08653400    -0.24800
C614        C  0.63608187  0.82428069  0.06678149    -0.24100
C615        C  0.62061515  0.80730730  0.07512332     0.40500
C616        C  0.60917431  0.80892906  0.10157858    -0.26600
O617        O  0.63503957  0.86059411  0.13157240    -0.58500
H618        H  0.65344788  0.85459776  0.08052037     0.16100
O619        O  0.61545210  0.78983705  0.05668696    -0.59900
H620        H  0.59630526  0.79649179  0.10674401     0.14600
H621        H  0.56186025  0.78820376  0.19657057     0.46400
H622        H  0.64610616  0.85428194  0.14552464     0.41800
H623        H  0.62837092  0.77917941  0.05816954     0.45300
H624        H  0.59282168  0.88018258  0.13618128     0.36700
C625        C  0.61663982  0.83547143  0.40669231    -0.27500
C626        C  0.59319315  0.83341535  0.40987257     0.02100
C627        C  0.58400873  0.83020810  0.43758823     0.30200
C628        C  0.59820319  0.82942881  0.46181744    -0.19300
C629        C  0.62186072  0.83200040  0.45905851    -0.28700
C630        C  0.63090058  0.83497265  0.43086836     0.44200
C631        C  0.57839135  0.83468638  0.38413212     0.05400
O632        O  0.56118505  0.82682071  0.44102736    -0.57200
H633        H  0.59021069  0.82652255  0.48240480     0.18300
O634        O  0.65382988  0.83677319  0.42664896    -0.63900
H635        H  0.62391955  0.83772183  0.38535916     0.16800
C636        C  0.56245814  0.85226031  0.38123035     0.29000
C637        C  0.54809568  0.85285699  0.35718991    -0.24800
C638        C  0.54945992  0.83610798  0.33572088    -0.24100
C639        C  0.56570733  0.81875925  0.33832165     0.40500
C640        C  0.58009021  0.81817486  0.36240405    -0.26600
O641        O  0.56080317  0.86890362  0.40183338    -0.58500
H642        H  0.53575490  0.86634670  0.35531773     0.16100
O643        O  0.56701867  0.80189346  0.31794922    -0.59900
H644        H  0.59230485  0.80457963  0.36441133     0.14600
H645        H  0.65663552  0.85303449  0.42264342     0.46400
H646        H  0.57138276  0.88093978  0.39543721     0.41800
H647        H  0.58074780  0.80534886  0.30641146     0.45300
H648        H  0.55531200  0.84107353  0.44955386     0.36700
C649        C  0.40445588  0.80594506  0.34685289    -0.27500
C650        C  0.39832319  0.82437522  0.36451491     0.02100
C651        C  0.40865093  0.84560428  0.35952245     0.30200
C652        C  0.42533242  0.84782505  0.33803222    -0.19300
C653        C  0.43191248  0.82917067  0.32122414    -0.28700
C654        C  0.42116966  0.80819378  0.32553205     0.44200
C655        C  0.38353936  0.82038135  0.39022432     0.05400
O656        O  0.40396837  0.86376183  0.37707367    -0.57200
H657        H  0.43370045  0.86399154  0.33509466     0.18300
O658        O  0.42743201  0.78961888  0.30960293    -0.63900
H659        H  0.39679332  0.78949421  0.35030814     0.16800
C660        C  0.36479308  0.83429718  0.39691649     0.29000
C661        C  0.35303035  0.83130555  0.42309061    -0.24800
C662        C  0.35953166  0.81436558  0.44270834    -0.24100
C663        C  0.37709781  0.79941692  0.43495941     0.40500
C664        C  0.38899717  0.80258396  0.40913320    -0.26600
O665        O  0.35807902  0.85110705  0.37836627    -0.58500
H666        H  0.33946099  0.84287202  0.42862125     0.16100
O667        O  0.38326407  0.78202533  0.45296234    -0.59900
H668        H  0.40311985  0.79148902  0.40435544     0.14600
H669        H  0.43998988  0.78257273  0.32062397     0.46400
H670        H  0.34782327  0.84358942  0.36436168     0.41800
H671        H  0.37316671  0.76925128  0.44771285     0.45300
H672        H  0.39595470  0.87481546  0.36458934     0.36700
C673        C  0.41868699  0.84300384  0.13560296    -0.27500
C674        C  0.41515824  0.82150796  0.12339869     0.02100
C675        C  0.42640824  0.80261545  0.13522533     0.30200
C676        C  0.44084359  0.80542609  0.15902646    -0.19300
C677        C  0.44435321  0.82693884  0.17111783    -0.28700
C678        C  0.43320079  0.84579675  0.15923714     0.44200
C679        C  0.39972215  0.81918171  0.09830250     0.05400
O680        O  0.42423193  0.78162257  0.12275326    -0.57200
H681        H  0.44957257  0.79085434  0.16786743     0.18300
O682        O  0.43616874  0.86695808  0.17087415    -0.63900
H683        H  0.41005779  0.85765650  0.12681817     0.16800
C684        C  0.38041996  0.80536297  0.09977016     0.29000
C685        C  0.36552609  0.80420625  0.07625710    -0.24800
C686        C  0.36956900  0.81650834  0.05054738    -0.24100
C687        C  0.38860195  0.83111513  0.04988399     0.40500
C688        C  0.40357163  0.83204845  0.07332581    -0.26600
O689        O  0.37513718  0.79415849  0.12490362    -0.58500
H690        H  0.35043029  0.79427163  0.07928499     0.16100
O691        O  0.39276144  0.84469581  0.02640675    -0.59900
H692        H  0.41815213  0.84314668  0.07214378     0.14600
H693        H  0.44964525  0.87323947  0.16090845     0.46400
H694        H  0.37634553  0.77780564  0.12022659     0.41800
H695        H  0.38521531  0.85928410  0.03087146     0.45300
H696        H  0.41646156  0.77210059  0.13737628     0.36700
C697        C  0.29034620  0.74003523  0.00686563    -0.27500
C698        C  0.26855634  0.74475303  0.49672899     0.02100
C699        C  0.26513558  0.76592449  0.48325838     0.30200
C700        C  0.28236247  0.78231751  0.48350538    -0.19300
C701        C  0.30384583  0.77830585  0.99705507    -0.28700
C702        C  0.30784685  0.75589410  0.00663401     0.44200
C703        C  0.25037938  0.72730567  0.49819401     0.05400
O704        O  0.24501951  0.77081901  0.46986350    -0.57200
H705        H  0.27914588  0.79849704  0.47344586     0.18300
O706        O  0.32890168  0.74904104  0.01552542    -0.63900
H707        H  0.29362001  0.72341812  0.01585334     0.16800
C708        C  0.25479144  0.70461918  0.49049325     0.29000
C709        C  0.23771942  0.68835080  0.49250679    -0.24800
C710        C  0.21569913  0.69423365  0.50121714    -0.24100
C711        C  0.21181610  0.71716254  0.00931413     0.40500
C712        C  0.22918328  0.73342542  0.00814914    -0.26600
O713        O  0.27561107  0.69819252  0.48022022    -0.58500
H714        H  0.24162763  0.67106332  0.48642709     0.16100
O715        O  0.19088526  0.72350160  0.01925550    -0.59900
H716        H  0.22581286  0.75041134  0.01591067     0.14600
H717        H  0.33758957  0.74642528  0.99746334     0.46400
H718        H  0.27535987  0.70188211  0.45929229     0.41800
H719        H  0.18442270  0.73327403  0.00390834     0.45300
H720        H  0.24645342  0.76441300  0.45010702     0.36700
C721        C  0.16182571  0.61163567  0.08841878    -0.27500
C722        C  0.18156152  0.61339052  0.10520631     0.02100
C723        C  0.19844674  0.62894578  0.09662462     0.30200
C724        C  0.19570550  0.64187151  0.07126953    -0.19300
C725        C  0.17634331  0.63934654  0.05396544    -0.28700
C726        C  0.15917226  0.62438531  0.06307468     0.44200
C727        C  0.18472977  0.59791930  0.13048158     0.05400
O728        O  0.21796434  0.63116947  0.11240602    -0.57200
H729        H  0.20920471  0.65306036  0.06436933     0.18300
O730        O  0.14006283  0.62142047  0.04666859    -0.63900
H731        H  0.14874913  0.59965105  0.09437552     0.16800
C732        C  0.16853709  0.59671394  0.15288390     0.29000
C733        C  0.17080059  0.58060198  0.17508893    -0.24800
C734        C  0.18898542  0.56528034  0.17527023    -0.24100
C735        C  0.20547049  0.56684705  0.15328153     0.40500
C736        C  0.20328390  0.58301954  0.13118888    -0.26600
O737        O  0.15060193  0.61145929  0.15343182    -0.58500
H738        H  0.15801625  0.57969822  0.19186199     0.16100
O739        O  0.22342644  0.55213508  0.15269722    -0.59900
H740        H  0.21577681  0.58346365  0.11403168     0.14600
H741        H  0.13000213  0.63422653  0.05190561     0.46400
H742        H  0.13729017  0.60240210  0.14735206     0.41800
H743        H  0.23450264  0.55839272  0.16669440     0.45300
H744        H  0.21430885  0.64231147  0.12777479     0.36700
C745        C  0.19400885  0.60046727  0.42210640    -0.27500
C746        C  0.18055221  0.60442639  0.39769749     0.02100
C747        C  0.16546331  0.62283789  0.39783418     0.30200
C748        C  0.16336737  0.63641025  0.42248174    -0.19300
C749        C  0.17640084  0.63220038  0.44748661    -0.28700
C750        C  0.19241841  0.61436718  0.44651967     0.44200
C751        C  0.18235937  0.58919242  0.37230970     0.05400
O752        O  0.15305333  0.62810631  0.37367814    -0.57200
H753        H  0.15212895  0.65073629  0.42102438     0.18300
O754        O  0.20724936  0.61092240  0.46895118    -0.63900
H755        H  0.20590147  0.58650370  0.42230063     0.16800
C756        C  0.20360617  0.58355521  0.36035995     0.29000
C757        C  0.20496347  0.56798533  0.33764272    -0.24800
C758        C  0.18529264  0.55837742  0.32600328    -0.24100
C759        C  0.16403088  0.56461811  0.33709020     0.40500
C760        C  0.16267787  0.57965160  0.36038244    -0.26600
O761        O  0.22312571  0.59320842  0.37065317    -0.58500
H762        H  0.22137956  0.56347631  0.32890630     0.16100
O763        O  0.14456313  0.55554119  0.32584380    -0.59900
H764        H  0.14622600  0.58362151  0.36941495     0.14600
H765        H  0.20281777  0.59624445  0.47771532     0.46400
H766        H  0.22418126  0.60809772  0.36082735     0.41800
H767        H  0.14035945  0.56568491  0.30962367     0.45300
H768        H  0.16325723  0.63746324  0.36153334     0.36700
C769        C  0.25359022  0.91948257  0.02305825    -0.27500
C770        C  0.26295208  0.91460539  0.49184783     0.02100
C771        C  0.26007007  0.92959326  0.46851350     0.30200
C772        C  0.24513830  0.94795724  0.47107601    -0.19300
C773        C  0.23459523  0.95223873  0.00205355    -0.28700
C774        C  0.23880825  0.93790940  0.02591194     0.44200
C775        C  0.27829453  0.89482398  0.48993933     0.05400
O776        O  0.27098869  0.92581994  0.44274923    -0.57200
H777        H  0.24293978  0.95911825  0.45269796     0.18300
O778        O  0.22789121  0.94110638  0.05178520    -0.63900
H779        H  0.25637765  0.90849323  0.04148623     0.16800
C780        C  0.30182993  0.89764065  0.48667610     0.29000
C781        C  0.31619406  0.87878295  0.48800238    -0.24800
C782        C  0.30876974  0.85707803  0.99539755    -0.24100
C783        C  0.28554227  0.85459152  0.00119163     0.40500
C784        C  0.27126449  0.87349841  0.00056355    -0.26600
O785        O  0.31102620  0.91882632  0.48354314    -0.58500
H786        H  0.33432399  0.88122022  0.48628272     0.16100
O787        O  0.27681359  0.83397498  0.00896607    -0.59900
H788        H  0.25347488  0.87136885  0.00558498     0.14600
H789        H  0.23864650  0.94985952  0.06388385     0.46400
H790        H  0.31314203  0.92456036  0.50353420     0.41800
H791        H  0.27912092  0.83291424  0.03017240     0.45300
H792        H  0.28308857  0.93743701  0.44179135     0.36700
C793        C  0.26082092  0.07802571  0.03711995    -0.27500
C794        C  0.26670265  0.08961692  0.51204692     0.02100
C795        C  0.25436851  0.08630433  0.48632404     0.30200
C796        C  0.23948134  0.06793750  0.48384463    -0.19300
C797        C  0.23643285  0.05275241  0.50690429    -0.28700
C798        C  0.24551593  0.05993531  0.03601247     0.44200
C799        C  0.28221251  0.10917790  0.51525343     0.05400
O800        O  0.25735184  0.10054581  0.46317332    -0.57200
H801        H  0.22993086  0.06590959  0.46400819     0.18300
O802        O  0.24075124  0.04847039  0.06108326    -0.63900
H803        H  0.26827113  0.08270721  0.05769362     0.16800
C804        C  0.27421784  0.13155943  0.51249873     0.29000
C805        C  0.28950435  0.14966942  0.51230206    -0.24800
C806        C  0.31278068  0.14580221  0.51515082    -0.24100
C807        C  0.31974219  0.12441662  0.02340562     0.40500
C808        C  0.30433134  0.10638672  0.02290312    -0.26600
O809        O  0.25157067  0.13583293  0.50901649    -0.58500
H810        H  0.28326400  0.16658863  0.50827903     0.16100
O811        O  0.34194020  0.12034049  0.03034246    -0.59900
H812        H  0.31013968  0.08948513  0.02820042     0.14600
H813        H  0.22890195  0.05757739  0.07088222     0.46400
H814        H  0.24529538  0.13638364  0.52891086     0.41800
H815        H  0.34924277  0.11568860  0.01194908     0.45300
H816        H  0.24312746  0.10938630  0.46170338     0.36700
C817        C  0.89202014  0.29825119  0.02077433    -0.27500
C818        C  0.89772981  0.28577743  0.49602762     0.02100
C819        C  0.88113802  0.28479208  0.47418507     0.30200
C820        C  0.86365246  0.30078158  0.47366137    -0.19300
C821        C  0.86223203  0.31771955  0.49487891    -0.28700
C822        C  0.87445617  0.31428353  0.02038291     0.44200
C823        C  0.91682966  0.26942415  0.49655869     0.05400
O824        O  0.88144637  0.26775630  0.45395169    -0.57200
H825        H  0.85118701  0.30006210  0.45648881     0.18300
O826        O  0.87126921  0.32810870  0.04388820    -0.63900
H827        H  0.90269874  0.29701585  0.03975305     0.16800
C828        C  0.93125574  0.26661167  0.47250024     0.29000
C829        C  0.94860217  0.25044407  0.47322564    -0.24800
C830        C  0.95232053  0.23723023  0.49803917    -0.24100
C831        C  0.93551688  0.23689481  0.01976061     0.40500
C832        C  0.91759383  0.25242436  0.01915425    -0.26600
O833        O  0.92874547  0.27979166  0.44829496    -0.58500
H834        H  0.95936870  0.24847720  0.45440874     0.16100
O835        O  0.93625654  0.22119219  0.04159718    -0.59900
H836        H  0.90483239  0.25176302  0.03598089     0.14600
H837        H  0.87975703  0.34216939  0.03941068     0.46400
H838        H  0.93853355  0.29318060  0.45164722     0.41800
H839        H  0.92795390  0.20784048  0.03403403     0.45300
H840        H  0.88455116  0.27527257  0.43517763     0.36700
C841        C  0.07532268  0.26888850  0.01258714    -0.27500
C842        C  0.08975952  0.26599592  0.49172172     0.02100
C843        C  0.08793232  0.24804174  0.47184821     0.30200
C844        C  0.06959212  0.23309765  0.47357269    -0.19300
C845        C  0.05468871  0.23592106  0.99526226    -0.28700
C846        C  0.05659735  0.25438331  0.01438389     0.44200
C847        C  0.10979922  0.28103322  0.49191039     0.05400
O848        O  0.10471858  0.24413559  0.45192789    -0.57200
H849        H  0.06872154  0.21903450  0.45853360     0.18300
O850        O  0.04021480  0.25850655  0.03474650    -0.63900
H851        H  0.07660119  0.28296558  0.02755483     0.16800
C852        C  0.11589592  0.29409310  0.46757838     0.29000
C853        C  0.13467057  0.30857521  0.46894716    -0.24800
C854        C  0.14940233  0.31067490  0.99455867    -0.24100
C855        C  0.14335873  0.29759623  0.01886261     0.40500
C856        C  0.12508076  0.28265774  0.01735675    -0.26600
O857        O  0.10318283  0.29341915  0.44278027    -0.58500
H858        H  0.13890921  0.31895799  0.45039156     0.16100
O859        O  0.15501370  0.29955756  0.04441076    -0.59900
H860        H  0.12045773  0.27302188  0.03641377     0.14600
H861        H  0.02932958  0.26886600  0.02519398     0.46400
H862        H  0.09119772  0.30496757  0.44560085     0.41800
H863        H  0.16899111  0.29050735  0.04167816     0.45300
H864        H  0.09799494  0.24798059  0.43289948     0.36700
C865        C  0.10480966  0.07216459  0.02790852    -0.27500
C866        C  0.10375424  0.08775846  0.50322370     0.02100
C867        C  0.11923666  0.08591038  0.48020347     0.30200
C868        C  0.13618010  0.06932986  0.48091033    -0.19300
C869        C  0.13808238  0.05436045  0.50443316    -0.28700
C870        C  0.12170260  0.05548845  0.02921465     0.44200
C871        C  0.08547864  0.10498028  0.50268880     0.05400
O872        O  0.11846819  0.10085843  0.45749597    -0.57200
H873        H  0.14796103  0.06828835  0.46298496     0.18300
O874        O  0.12275472  0.04169236  0.05303206    -0.63900
H875        H  0.09307035  0.07387224  0.04579712     0.16800
C876        C  0.06920685  0.10522715  0.48041938     0.29000
C877        C  0.05257634  0.12212359  0.47977272    -0.24800
C878        C  0.05179691  0.13881069  0.00160479    -0.24100
C879        C  0.06732815  0.13735540  0.02476475     0.40500
C880        C  0.08361572  0.12010248  0.02527371    -0.26600
O881        O  0.06924878  0.08884747  0.45936892    -0.58500
H882        H  0.04024202  0.12202373  0.46243634     0.16100
O883        O  0.06701890  0.15289268  0.04683627    -0.59900
H884        H  0.09558343  0.11945925  0.04301118     0.14600
H885        H  0.11352481  0.02822992  0.04797113     0.46400
H886        H  0.05976572  0.07642215  0.46720419     0.41800
H887        H  0.07704020  0.16536124  0.04030212     0.45300
H888        H  0.11298934  0.09193502  0.44071540     0.36700
C889        C  0.74362843  0.93188844  0.03599844    -0.27500
C890        C  0.73329323  0.92374878  0.51135169     0.02100
C891        C  0.73752354  0.93390302  0.48437655     0.30200
C892        C  0.75345831  0.95140599  0.48204732    -0.19300
C893        C  0.76541791  0.95908086  0.50647819    -0.28700
C894        C  0.75914808  0.94982649  0.03457736     0.44200
C895        C  0.71681479  0.90504589  0.51405968     0.05400
O896        O  0.72610844  0.92683404  0.46017071    -0.57200
H897        H  0.75642310  0.95897714  0.46104345     0.18300
O898        O  0.76739141  0.95859636  0.05995358    -0.63900
H899        H  0.73843248  0.92546791  0.05693363     0.16800
C900        C  0.72411166  0.88239025  0.51441926     0.29000
C901        C  0.70819854  0.86479743  0.51442744    -0.24800
C902        C  0.68493178  0.86947942  0.51442695    -0.24100
C903        C  0.67919016  0.89097378  0.01635795     0.40500
C904        C  0.69535446  0.90833945  0.01645822    -0.26600
O905        O  0.74673409  0.87731185  0.51309500    -0.58500
H906        H  0.71410343  0.84756448  0.51287077     0.16100
O907        O  0.65673838  0.89642908  0.01924782    -0.59900
H908        H  0.68988316  0.92576155  0.01878388     0.14600
H909        H  0.78062327  0.94901372  0.06488455     0.46400
H910        H  0.75159237  0.87574003  0.53352919     0.41800
H911        H  0.65298216  0.89311958  0.03973253     0.45300
H912        H  0.73523189  0.91415491  0.45227896     0.36700
C913        C  0.75352682  0.09484583  0.46917810    -0.27500
C914        C  0.73721792  0.09889277  0.99038799     0.02100
C915        C  0.74214396  0.08913690  0.01743187     0.30200
C916        C  0.75676354  0.07051491  0.01926017    -0.19300
C917        C  0.76672637  0.06119365  0.99428646    -0.28700
C918        C  0.76792759  0.07601032  0.47005690     0.44200
C919        C  0.72151177  0.11836618  0.98829938     0.05400
O920        O  0.73274264  0.09773814  0.04226099    -0.57200
H921        H  0.76035711  0.06343226  0.04037637     0.18300
O922        O  0.78268591  0.07254268  0.44756476    -0.63900
H923        H  0.75409423  0.10611400  0.45069449     0.16800
C924        C  0.72937795  0.14032180  0.98194064     0.29000
C925        C  0.71464438  0.15892022  0.98414405    -0.24800
C926        C  0.69196726  0.15583563  0.99231404    -0.24100
C927        C  0.68572847  0.13513667  0.48871653     0.40500
C928        C  0.70036544  0.11655494  0.48692742    -0.26600
O929        O  0.75174552  0.14392342  0.97551654    -0.58500
H930        H  0.72129095  0.17576659  0.98096595     0.16100
O931        O  0.66287599  0.13180305  0.48570657    -0.59900
H932        H  0.69345955  0.09981699  0.48310170     0.14600
H933        H  0.79665134  0.08082201  0.45303504     0.46400
H934        H  0.75266705  0.14305444  0.95411803     0.41800
H935        H  0.65940735  0.13621294  0.46548624     0.45300
H936        H  0.74266612  0.11055039  0.04789474     0.36700
C937        C  0.91797003  0.12453472  0.47603959    -0.27500
C938        C  0.91633632  0.10925131  0.99989255     0.02100
C939        C  0.93033899  0.11184541  0.02436429     0.30200
C940        C  0.94785518  0.12790116  0.02417734    -0.19300
C941        C  0.95077726  0.14116849  0.49982715    -0.28700
C942        C  0.93523442  0.14068498  0.47661176     0.44200
C943        C  0.89779847  0.09228245  0.99921836     0.05400
O944        O  0.92777720  0.09792251  0.04791112    -0.57200
H945        H  0.95861149  0.12943204  0.04305319     0.18300
O946        O  0.93659040  0.15606171  0.45443912    -0.63900
H947        H  0.90622370  0.12433980  0.45803934     0.16800
C948        C  0.88075136  0.09212664  0.02051290     0.29000
C949        C  0.86393240  0.07546272  0.01998487    -0.24800
C950        C  0.86292556  0.05878843  0.49508236    -0.24100
C951        C  0.87943507  0.05986111  0.47309555     0.40500
C952        C  0.89637978  0.07644514  0.47426995    -0.26600
O953        O  0.88018936  0.10835339  0.04174997    -0.58500
H954        H  0.85114991  0.07551541  0.03680564     0.16100
O955        O  0.87956665  0.04448256  0.45084464    -0.59900
H956        H  0.90921641  0.07689558  0.45752544     0.14600
H957        H  0.92831461  0.16961624  0.46144034     0.46400
H958        H  0.87226362  0.12145011  0.03294973     0.41800
H959        H  0.88836753  0.03139034  0.45818286     0.45300
H960        H  0.92250985  0.10786714  0.06385409     0.36700
C961        C  0.86937689  0.73867094  0.00469249    -0.27500
C962        C  0.88715150  0.73507773  0.48897550     0.02100
C963        C  0.88497150  0.71817818  0.46749972     0.30200
C964        C  0.86598052  0.70387081  0.46742630    -0.19300
C965        C  0.84857652  0.70635090  0.98605170    -0.28700
C966        C  0.85081443  0.72407006  0.00617078     0.44200
C967        C  0.90765036  0.74952001  0.49120544     0.05400
O968        O  0.90213582  0.71434063  0.44808821    -0.57200
H969        H  0.86495849  0.69022013  0.45179084     0.18300
O970        O  0.83505443  0.72698554  0.02767592    -0.63900
H971        H  0.87091676  0.75205728  0.02062313     0.16800
C972        C  0.91526130  0.76242003  0.46757378     0.29000
C973        C  0.93422351  0.77636531  0.47050740    -0.24800
C974        C  0.94573904  0.77790301  0.99157184    -0.24100
C975        C  0.93729997  0.76575758  0.01554008     0.40500
C976        C  0.91832871  0.75175162  0.01238234    -0.26600
O977        O  0.90386234  0.76213604  0.44173852    -0.58500
H978        H  0.93953392  0.78622694  0.45194999     0.16100
O979        O  0.94709778  0.76772918  0.04231349    -0.59900
H980        H  0.91211801  0.74262405  0.03110773     0.14600
H981        H  0.84182971  0.72004260  0.04517799     0.46400
H982        H  0.89199672  0.77391948  0.44363586     0.41800
H983        H  0.95823164  0.75519350  0.04336782     0.45300
H984        H  0.89577596  0.71815917  0.42884371     0.36700
C985        C  0.06968205  0.74508166  0.48124305    -0.27500
C986        C  0.08487182  0.74582838  0.99954299     0.02100
C987        C  0.07842934  0.75826255  0.02414225     0.30200
C988        C  0.06030660  0.77346269  0.02257960    -0.19300
C989        C  0.04706061  0.77490795  0.50342547    -0.28700
C990        C  0.05185038  0.76067545  0.47967759     0.44200
C991        C  0.10398078  0.72951953  0.00074737     0.05400
O992        O  0.09052820  0.75652528  0.04939023    -0.57200
H993        H  0.05592764  0.78302063  0.04180021     0.18300
O994        O  0.03935103  0.76189280  0.45473526    -0.63900
H995        H  0.07317558  0.73441302  0.46268289     0.16800
C996        C  0.10407794  0.71133993  0.02059855     0.29000
C997        C  0.12208359  0.69586068  0.02076972    -0.24800
C998        C  0.13915006  0.69657906  0.50329958    -0.24100
C999        C  0.13630856  0.71319650  0.48179435     0.40500
C1000       C  0.11841004  0.72860918  0.48361320    -0.26600
O1001       O  0.08621509  0.70799941  0.03906684    -0.58500
H1002       H  0.12165370  0.68158799  0.03548844     0.16100
O1003       O  0.15107626  0.71451530  0.45892681    -0.59900
H1004       H  0.11655694  0.74130630  0.46686290     0.14600
H1005       H  0.02630438  0.75162179  0.45792026     0.46400
H1006       H  0.07485088  0.69947113  0.02763267     0.41800
H1007       H  0.14320690  0.70706164  0.44253572     0.45300
H1008       H  0.08016377  0.74923969  0.06347475     0.36700
C1009       C  0.89580212  0.94180168  0.02823021    -0.27500
C1010       C  0.89881606  0.92764079  0.50114604     0.02100
C1011       C  0.88233178  0.92795066  0.47921374     0.30200
C1012       C  0.86515588  0.94427837  0.47968467    -0.19300
C1013       C  0.86403001  0.96050440  0.50190882    -0.28700
C1014       C  0.87913979  0.95874673  0.02869543     0.44200
C1015       C  0.91678781  0.91014044  0.50131304     0.05400
O1016       O  0.88230172  0.91168711  0.45798903    -0.57200
H1017       H  0.85249842  0.94404958  0.46273341     0.18300
O1018       O  0.87930778  0.97443652  0.05058729    -0.63900
H1019       H  0.90844866  0.94139124  0.04518917     0.16800
C1020       C  0.93249507  0.90840633  0.47848229     0.29000
C1021       C  0.94856641  0.89095825  0.47838262    -0.24800
C1022       C  0.94843055  0.87452569  0.00224349    -0.24100
C1023       C  0.93423138  0.87660703  0.02677929     0.40500
C1024       C  0.91770408  0.89360291  0.02786591    -0.26600
O1025       O  0.93236438  0.92378228  0.45625900    -0.58500
H1026       H  0.96050529  0.88992170  0.46063115     0.16100
O1027       O  0.93608649  0.86197042  0.04969327    -0.59900
H1028       H  0.90675084  0.89475887  0.04662430     0.14600
H1029       H  0.88861039  0.98716770  0.04320190     0.46400
H1030       H  0.94165074  0.93667091  0.46322382     0.41800
H1031       H  0.92623625  0.84893859  0.04470120     0.45300
H1032       H  0.88762115  0.91948072  0.44024325     0.36700
C1033       C  0.06834892  0.90389487  0.02311063    -0.27500
C1034       C  0.08283543  0.90589075  0.49785304     0.02100
C1035       C  0.08078684  0.88940608  0.47600553     0.30200
C1036       C  0.06361398  0.87311781  0.47766060    -0.19300
C1037       C  0.04835652  0.87281241  0.50101420    -0.28700
C1038       C  0.05054952  0.88823403  0.02341155     0.44200
C1039       C  0.10136755  0.92283937  0.49739154     0.05400
O1040       O  0.09627056  0.88830027  0.45389216    -0.57200
H1041       H  0.06248659  0.86042071  0.46078095     0.18300
O1042       O  0.03514943  0.88887489  0.04560588    -0.63900
H1043       H  0.06965527  0.91614189  0.04050174     0.16800
C1044       C  0.10483624  0.93733587  0.47355890     0.29000
C1045       C  0.12240718  0.95327665  0.47410373    -0.24800
C1046       C  0.13742704  0.95392329  0.00263085    -0.24100
C1047       C  0.13415033  0.93883538  0.02598108     0.40500
C1048       C  0.11688726  0.92263735  0.02483258    -0.26600
O1049       O  0.09083921  0.93646416  0.44992903    -0.58500
H1050       H  0.12465871  0.96439296  0.45568631     0.16100
O1051       O  0.14772655  0.93966209  0.05002419    -0.59900
H1052       H  0.11461387  0.91118819  0.04292049     0.14600
H1053       H  0.02285353  0.89894623  0.03871001     0.46400
H1054       H  0.07782881  0.94634466  0.45487652     0.41800
H1055       H  0.16085529  0.92984353  0.04538294     0.45300
H1056       H  0.08773903  0.89208292  0.43606093     0.36700
O1057       O  0.97416613  0.85066567  0.97587252    -0.72800
O1058       O  0.02165816  0.80124862  0.97243247    -0.73800
O1059       O  0.97327788  0.80275837  0.97125641    -0.62400
O1060       O  0.02236142  0.84897093  0.97567738    -0.70900
O1061       O  0.02179118  0.84862694  0.52551536    -0.70400
O1062       O  0.97271314  0.80074035  0.52383715    -0.61700
O1063       O  0.02112103  0.80043735  0.52585577    -0.74200
O1064       O  0.97369827  0.84874024  0.52481075    -0.73000
Cu1065     Cu  0.99784796  0.82596334  0.97213802     1.04600
Cu1066     Cu  0.99732371  0.82458872  0.52670208     1.04300
C1067       C  0.96695978  0.85715876  0.50090360     0.93400
C1068       C  0.02932798  0.79327532  0.99624591     0.92500
C1069       C  0.96501408  0.79431367  0.49926543     0.84600
C1070       C  0.02977166  0.85567133  0.00014275     0.90900
O1071       O  0.83887583  0.98706641  0.52468471    -0.72800
O1072       O  0.78999991  0.03475582  0.52083441    -0.73800
O1073       O  0.79077502  0.98662555  0.52613784    -0.62400
O1074       O  0.83761503  0.03484922  0.52038485    -0.70900
O1075       O  0.83875072  0.03175762  0.97550662    -0.70400
O1076       O  0.78982631  0.98398518  0.98028103    -0.61700
O1077       O  0.79073396  0.03234771  0.97437714    -0.74200
O1078       O  0.83766271  0.98376721  0.98057835    -0.73000
Cu1079     Cu  0.81427238  0.01087027  0.52463853     1.04600
Cu1080     Cu  0.81420558  0.00785617  0.97603882     1.04300
C1081       C  0.84548857  0.97791957  0.00520656     0.93400
C1082       C  0.78327696  0.04175026  0.49608546     0.92500
C1083       C  0.78266683  0.97754199  0.00510888     0.84600
C1084       C  0.84554157  0.04080255  0.49587412     0.90900
O1085       O  0.97951073  0.21340766  0.97413823    -0.72800
O1086       O  0.02624072  0.16330047  0.97617160    -0.73800
O1087       O  0.97821085  0.16554746  0.97577997    -0.62400
O1088       O  0.02794274  0.21119343  0.97353300    -0.70900
O1089       O  0.02628387  0.21310470  0.52132759    -0.70400
O1090       O  0.97805551  0.16464579  0.52392548    -0.61700
O1091       O  0.02641799  0.16508544  0.52402236    -0.74200
O1092       O  0.97815359  0.21256611  0.52223929    -0.73000
Cu1093     Cu  0.00299643  0.18836139  0.97326722     1.04600
Cu1094     Cu  0.00225805  0.18889099  0.52457629     1.04300
C1095       C  0.97112890  0.22063225  0.99798088     0.93400
C1096       C  0.03359561  0.15626436  0.50051724     0.92500
C1097       C  0.97053846  0.15822119  0.99981825     0.84600
C1098       C  0.03437782  0.21907153  0.49679621     0.90900
O1099       O  0.20969779  0.97793241  0.52332347    -0.72800
O1100       O  0.16286557  0.02746521  0.52722538    -0.73800
O1101       O  0.16206971  0.97954563  0.52359775    -0.62400
O1102       O  0.21099501  0.02593457  0.52774307    -0.70900
O1103       O  0.21118924  0.02825306  0.98310622    -0.70400
O1104       O  0.16264842  0.98028086  0.98000414    -0.61700
O1105       O  0.16319718  0.02838864  0.98217680    -0.74200
O1106       O  0.21067876  0.97998090  0.98016470    -0.73000
Cu1107     Cu  0.18643580  0.00267598  0.52710261     1.04600
Cu1108     Cu  0.18697107  0.00428352  0.97972077     1.04300
C1109       C  0.21691309  0.97106225  0.49873981     0.93400
C1110       C  0.15498403  0.03514824  0.00624720     0.92500
C1111       C  0.15429755  0.97304027  0.49922992     0.84600
C1112       C  0.21833568  0.03514166  0.00772105     0.90900
C1113       C  0.17523609  0.64873996  0.97165937     0.86600
C1114       C  0.15542029  0.66554078  0.97379274    -0.53700
C1115       C  0.15632116  0.67937416  0.99739862     0.09500
C1116       C  0.17686463  0.67456439  0.51909134     0.20500
C1117       C  0.19637642  0.66365250  0.97332618    -0.54400
C1118       C  0.19741700  0.67765678  0.99687030     0.09600
C1119       C  0.17437350  0.63597994  0.00055584    -0.53900
C1120       C  0.17590934  0.64908471  0.52656751     0.10200
H1121       H  0.14165494  0.66685683  0.95844462     0.14700
H1122       H  0.17741910  0.68573125  0.53840485     0.00400
H1123       H  0.20894904  0.66381864  0.95617315     0.15000
H1124       H  0.17319309  0.61766554  0.00205699     0.14800
C1125       C  0.35131422  0.81661377  0.52523717     0.86600
C1126       C  0.33710574  0.83811809  0.52180813    -0.53700
C1127       C  0.32302930  0.83796715  0.49845212     0.09500
C1128       C  0.32539701  0.81657965  0.98057795     0.20500
C1129       C  0.33386644  0.79726435  0.52510678    -0.54400
C1130       C  0.32020186  0.79651997  0.50122524     0.09600
C1131       C  0.36371196  0.81381385  0.49622958    -0.53900
C1132       C  0.35052437  0.81431200  0.97216969     0.10200
H1133       H  0.33779508  0.85217061  0.53697445     0.14700
H1134       H  0.31385863  0.81724407  0.96165307     0.00400
H1135       H  0.33221713  0.78495510  0.54218244     0.15000
H1136       H  0.38200287  0.81260646  0.49455584     0.14800
N1137       N  0.49952034  0.83576639  0.70870710    -0.36500
N1138       N  0.46083524  0.83377603  0.74820889    -0.57100
N1139       N  0.49146458  0.83744278  0.79707755    -0.36500
N1140       N  0.53015841  0.83706103  0.75771850    -0.57100
C1141       C  0.48286219  0.83003246  0.68997151     0.27100
C1142       C  0.51953936  0.83234976  0.69504588     0.27100
C1143       C  0.47194644  0.83183813  0.81069572     0.27100
C1144       C  0.50860767  0.83313312  0.81572647     0.27100
C1145       C  0.44954625  0.83520806  0.72285541     0.35700
C1146       C  0.44529026  0.83645691  0.76943932     0.35700
C1147       C  0.54538701  0.84055588  0.73634635     0.35700
C1148       C  0.54110628  0.84103642  0.78286025     0.35700
C1149       C  0.49244439  0.82343770  0.66385776    -0.21800
C1150       C  0.51552542  0.82481361  0.66710178    -0.21800
C1151       C  0.47676898  0.82412657  0.83836046    -0.21800
C1152       C  0.49985906  0.82495146  0.84152766    -0.21800
C1153       C  0.42666208  0.83862145  0.72805732    -0.22900
C1154       C  0.42400856  0.83959578  0.75754828    -0.22800
C1155       C  0.56609553  0.84676179  0.74794697    -0.22900
C1156       C  0.56336163  0.84715694  0.77743206    -0.22800
C1157       C  0.45925364  0.83165837  0.69520103    -0.18200
C1158       C  0.54134737  0.83654883  0.70667247    -0.18200
C1159       C  0.53188570  0.83722880  0.81064249    -0.18200
C1160       C  0.44979721  0.83418535  0.79934024    -0.18200
H1161       H  0.48377802  0.81826926  0.64432593     0.14700
H1162       H  0.52793400  0.82078023  0.65065092     0.14700
H1163       H  0.46488989  0.81836685  0.85460295     0.14700
H1164       H  0.50914853  0.82002202  0.86069024     0.14700
H1165       H  0.41317731  0.83990054  0.71231319     0.13000
H1166       H  0.40814118  0.84178755  0.76891917     0.13000
H1167       H  0.58163635  0.85029492  0.73639114     0.13000
H1168       H  0.57640760  0.85102192  0.79310542     0.13000
H1169       H  0.49729096  0.84362567  0.72857610     0.26300
H1170       H  0.49283477  0.84591801  0.77746599     0.26300
C1171       C  0.63754998  0.83097158  0.98395533     0.86600
C1172       C  0.65295489  0.85173867  0.98676013    -0.53700
C1173       C  0.66891513  0.85012346  0.00800533     0.09500
C1174       C  0.66797504  0.82830192  0.52670867     0.20500
C1175       C  0.65376305  0.81093252  0.98058208    -0.54400
C1176       C  0.66957951  0.80875604  0.00199249     0.09600
C1177       C  0.62750468  0.82788182  0.01451529    -0.53900
C1178       C  0.64327775  0.82624880  0.53722998     0.10200
H1179       H  0.65167303  0.86635718  0.97259783     0.14700
H1180       H  0.68057225  0.82738638  0.54447892     0.00400
H1181       H  0.65305244  0.79985499  0.96188708     0.15000
H1182       H  0.60966642  0.82732194  0.01963463     0.14800
C1183       C  0.81226418  0.65826932  0.51828588     0.86600
C1184       C  0.83260402  0.67445817  0.51598403    -0.53700
C1185       C  0.83209285  0.68822316  0.49234611     0.09500
C1186       C  0.81096376  0.68426941  0.97065443     0.20500
C1187       C  0.79178766  0.67410519  0.51694555    -0.54400
C1188       C  0.79102160  0.68788517  0.49316391     0.09600
C1189       C  0.81219282  0.64548527  0.48948927    -0.53900
C1190       C  0.81203781  0.65863622  0.96424038     0.10200
H1191       H  0.84612560  0.67601365  0.53159589     0.14700
H1192       H  0.81080405  0.69493576  0.95089381     0.00400
H1193       H  0.77942264  0.67496197  0.53430339     0.15000
H1194       H  0.81256210  0.62711327  0.48817425     0.14800
C1195       C  0.35767099  0.18406768  0.98184671     0.86600
C1196       C  0.34255499  0.16340316  0.98639529    -0.53700
C1197       C  0.32931121  0.16440146  0.01046762     0.09500
C1198       C  0.33111902  0.18647688  0.52610986     0.20500
C1199       C  0.34119904  0.20430235  0.98252273    -0.54400
C1200       C  0.32807170  0.20572657  0.00681240     0.09600
C1201       C  0.37108514  0.18649339  0.01008901    -0.53900
C1202       C  0.35681413  0.18853355  0.53219369     0.10200
H1203       H  0.34190118  0.14930175  0.97129273     0.14700
H1204       H  0.32035339  0.18716488  0.54578356     0.00400
H1205       H  0.33949329  0.21665385  0.96548008     0.15000
H1206       H  0.38945604  0.18687003  0.01048538     0.14800
C1207       C  0.18539281  0.35959722  0.51851818     0.86600
C1208       C  0.16510456  0.34344391  0.51889813    -0.53700
C1209       C  0.16505393  0.32790910  0.49702768     0.09500
C1210       C  0.18769043  0.33078798  0.97717416     0.20500
C1211       C  0.20616848  0.34415045  0.51768196    -0.54400
C1212       C  0.20625879  0.32839837  0.49594990     0.09600
C1213       C  0.18449609  0.37030888  0.48819502    -0.53900
C1214       C  0.18710453  0.35574292  0.96717891     0.10200
H1215       H  0.15186101  0.34420867  0.53518865     0.14700
H1216       H  0.18783918  0.31862296  0.95889516     0.00400
H1217       H  0.21915507  0.34494460  0.53425190     0.15000
H1218       H  0.18348029  0.38824952  0.48373361     0.14800
N1219       N  0.19395401  0.50474802  0.70289624    -0.36500
N1220       N  0.18974680  0.53689268  0.74934509    -0.57100
N1221       N  0.19072539  0.49959869  0.79132734    -0.36500
N1222       N  0.19281255  0.46734701  0.74475811    -0.57100
C1223       C  0.18872102  0.52373957  0.68788171     0.27100
C1224       C  0.18941572  0.48690228  0.68549587     0.27100
C1225       C  0.18406541  0.51699100  0.80840353     0.27100
C1226       C  0.18659148  0.48013631  0.80596627     0.27100
C1227       C  0.19356094  0.55161425  0.72745696     0.35700
C1228       C  0.19141995  0.54891315  0.77410525     0.35700
C1229       C  0.19745220  0.45571157  0.72033181     0.35700
C1230       C  0.19663922  0.45300131  0.76700407     0.35700
C1231       C  0.18098451  0.51788403  0.66057860    -0.21800
C1232       C  0.18138985  0.49464309  0.65907864    -0.21800
C1233       C  0.17588282  0.50847397  0.83437320    -0.21800
C1234       C  0.17737130  0.48525071  0.83276742    -0.21800
C1235       C  0.19763536  0.57308363  0.73831091    -0.22900
C1236       C  0.19613316  0.57142467  0.76785443    -0.22800
C1237       C  0.20427260  0.43387058  0.72702985    -0.22900
C1238       C  0.20384851  0.43218004  0.75666010    -0.22800
C1239       C  0.19148007  0.54624191  0.69781006    -0.18200
C1240       C  0.19364338  0.46389760  0.69208952    -0.18200
C1241       C  0.19184416  0.45795580  0.79627295    -0.18200
C1242       C  0.18677331  0.54032167  0.80204159    -0.18200
H1243       H  0.17556987  0.52917860  0.64349730     0.14700
H1244       H  0.17646272  0.48459100  0.64052866     0.14700
H1245       H  0.16968885  0.51795439  0.85278233     0.14700
H1246       H  0.17237363  0.47349012  0.84955085     0.14700
H1247       H  0.20084930  0.58843620  0.72620718     0.13000
H1248       H  0.19787312  0.58535913  0.78290186     0.13000
H1249       H  0.20872850  0.42045792  0.71210061     0.13000
H1250       H  0.20791672  0.41720862  0.76911127     0.13000
H1251       H  0.20243653  0.50403311  0.72257182     0.26300
H1252       H  0.19991993  0.50110598  0.77226756     0.26300
N1253       N  0.50058657  0.18327982  0.71136964    -0.36500
N1254       N  0.53825064  0.18435002  0.75284535    -0.57100
N1255       N  0.50592276  0.18384480  0.79969450    -0.36500
N1256       N  0.46830599  0.18054236  0.75815878    -0.57100
C1257       C  0.51835361  0.17936303  0.69356213     0.27100
C1258       C  0.48144952  0.17870863  0.69627707     0.27100
C1259       C  0.52544670  0.18151508  0.81481707     0.27100
C1260       C  0.48868939  0.17824674  0.81759940     0.27100
C1261       C  0.54983961  0.18793142  0.72805814     0.35700
C1262       C  0.55255886  0.18933690  0.77480412     0.35700
C1263       C  0.45354985  0.18383574  0.73614734     0.35700
C1264       C  0.45637321  0.18269077  0.78297296     0.35700
C1265       C  0.51040809  0.17220067  0.66684087    -0.21800
C1266       C  0.48719271  0.17206962  0.66842458    -0.21800
C1267       C  0.52045787  0.17470209  0.84282144    -0.21800
C1268       C  0.49735309  0.17244486  0.84448812    -0.21800
C1269       C  0.57168337  0.19500225  0.73431770    -0.22900
C1270       C  0.57344787  0.19574011  0.76389797    -0.22800
C1271       C  0.43204670  0.18773033  0.74705320    -0.22900
C1272       C  0.43383424  0.18701600  0.77669873    -0.22800
C1273       C  0.54142778  0.18379147  0.69986944    -0.18200
C1274       C  0.45898305  0.18183666  0.70639091    -0.18200
C1275       C  0.46527672  0.17982397  0.81119367    -0.18200
C1276       C  0.54746916  0.18673197  0.80452970    -0.18200
H1277       H  0.52028676  0.16797836  0.64786297     0.14700
H1278       H  0.47594391  0.16778445  0.65081224     0.14700
H1279       H  0.53211882  0.17185125  0.86046539     0.14700
H1280       H  0.48797340  0.16749955  0.86359026     0.14700
H1281       H  0.58506034  0.19904522  0.71917524     0.13000
H1282       H  0.58848916  0.20026937  0.77592266     0.13000
H1283       H  0.41661597  0.19048952  0.73496038     0.13000
H1284       H  0.42007591  0.18930931  0.79189222     0.13000
H1285       H  0.50140580  0.19134321  0.73129116     0.26300
H1286       H  0.50422423  0.19141580  0.77957149     0.26300
C1287       C  0.65121626  0.19563196  0.53180669     0.86600
C1288       C  0.66574303  0.17453255  0.52660175    -0.53700
C1289       C  0.67894331  0.17556333  0.50244933     0.09500
C1290       C  0.67553841  0.19804888  0.98316608     0.20500
C1291       C  0.66852595  0.21516847  0.53199123    -0.54400
C1292       C  0.68156594  0.21671910  0.50761726     0.09600
C1293       C  0.63794046  0.19895302  0.50358272    -0.53900
C1294       C  0.64997122  0.20019271  0.97659121     0.06600
H1295       H  0.66582969  0.16003188  0.54106023     0.14700
H1296       H  0.68635414  0.19880019  0.96354497     0.00400
H1297       H  0.67128352  0.22649020  0.54995642     0.15000
H1298       H  0.61957268  0.19935813  0.50297746     0.14800
C1299       C  0.82423400  0.36574760  0.96774982     0.86600
C1300       C  0.84391411  0.34867072  0.96870880    -0.53700
C1301       C  0.84411884  0.33521535  0.99269387     0.09500
C1302       C  0.82549334  0.34014038  0.51290909     0.20500
C1303       C  0.80308759  0.35099555  0.97138382    -0.54400
C1304       C  0.80302929  0.33745870  0.99540173     0.09600
C1305       C  0.82639748  0.37893394  0.99609634    -0.53900
C1306       C  0.82650596  0.36584638  0.51932321     0.10200
H1307       H  0.85672766  0.34666784  0.95221878     0.14700
H1308       H  0.82624295  0.32940771  0.53254606     0.00400
H1309       H  0.78974036  0.35059452  0.95525089     0.15000
H1310       H  0.82722583  0.39730970  0.99675496     0.14800
N1311       N  0.80971821  0.51379045  0.78668011    -0.36500
N1312       N  0.80538451  0.54623008  0.74032154    -0.57100
N1313       N  0.80680331  0.50864698  0.69854087    -0.36500
N1314       N  0.80884389  0.47610927  0.74479181    -0.57100
C1315       C  0.80610122  0.53282828  0.80243197     0.27100
C1316       C  0.80771407  0.49594004  0.80478879     0.27100
C1317       C  0.80158085  0.52613668  0.68094869     0.27100
C1318       C  0.80358929  0.48930417  0.68328899     0.27100
C1319       C  0.80870914  0.56098173  0.76232606     0.35700
C1320       C  0.80745571  0.55821628  0.71558915     0.35700
C1321       C  0.81346385  0.46438993  0.76914704     0.35700
C1322       C  0.81240298  0.46175785  0.72241613     0.35700
C1323       C  0.80225537  0.52691255  0.83107427    -0.21800
C1324       C  0.80309639  0.50370650  0.83250477    -0.21800
C1325       C  0.79493495  0.51786453  0.65417695    -0.21800
C1326       C  0.79632727  0.49466877  0.65558296    -0.21800
C1327       C  0.81230963  0.58256815  0.75148388    -0.22900
C1328       C  0.81171295  0.58078114  0.72189820    -0.22800
C1329       C  0.81949984  0.44233446  0.76226932    -0.22900
C1330       C  0.81879777  0.44065987  0.73266824    -0.22800
C1331       C  0.80754620  0.55540981  0.79206811    -0.18200
C1332       C  0.81145489  0.47292082  0.79761156    -0.18200
C1333       C  0.80894513  0.46716845  0.69294379    -0.18200
C1334       C  0.80463579  0.54936200  0.68738554    -0.18200
H1335       H  0.79947531  0.53805857  0.84930626     0.14700
H1336       H  0.80099958  0.49372024  0.85195455     0.14700
H1337       H  0.79014386  0.52756861  0.63528598     0.14700
H1338       H  0.79283980  0.48321290  0.63787957     0.14700
H1339       H  0.81506030  0.59804184  0.76352485     0.13000
H1340       H  0.81398582  0.59459070  0.70678754     0.13000
H1341       H  0.82391983  0.42882742  0.77704465     0.13000
H1342       H  0.82243669  0.42557644  0.72019530     0.13000
H1343       H  0.81574827  0.51302853  0.76568943     0.26300
H1344       H  0.81514879  0.51006194  0.71815775     0.26300
C1345       C  0.81029718  0.38216282  0.59644451    -0.27500
C1346       C  0.82236744  0.40252564  0.59992536     0.02100
C1347       C  0.83746515  0.40928049  0.57793563     0.30200
C1348       C  0.83980928  0.39621503  0.55288449    -0.19300
C1349       C  0.82682734  0.37653234  0.54859734    -0.28700
C1350       C  0.81241754  0.36920147  0.57104030     0.44200
C1351       C  0.81847130  0.41729055  0.62565590     0.05400
O1352       O  0.84925274  0.42923720  0.58003056    -0.57200
H1353       H  0.85122983  0.40206862  0.53613365     0.18300
O1354       O  0.79899981  0.35045779  0.56750960    -0.63900
H1355       H  0.79873812  0.37656937  0.61317863     0.16800
C1356       C  0.79645932  0.42427909  0.63359969     0.29000
C1357       C  0.79339445  0.43975623  0.65632252    -0.24800
C1358       C  0.81208931  0.44903738  0.67082148    -0.24100
C1359       C  0.83399988  0.44180928  0.66326460     0.40500
C1360       C  0.83704371  0.42583622  0.64121350    -0.26600
O1361       O  0.77788933  0.41681510  0.61857024    -0.58500
H1362       H  0.77644412  0.44522438  0.66192003     0.16100
O1363       O  0.85258650  0.45048118  0.67716676    -0.59900
H1364       H  0.85406401  0.42051771  0.63574752     0.14600
H1365       H  0.80632986  0.33839540  0.57911470     0.46400
H1366       H  0.77639799  0.42733910  0.60196481     0.41800
H1367       H  0.85621126  0.46472003  0.66677910     0.45300
H1368       H  0.83890481  0.44099321  0.57230983     0.36700
C1369       C  0.80298920  0.41238001  0.91670239    -0.27500
C1370       C  0.81824694  0.41104722  0.89359311     0.02100
C1371       C  0.83559996  0.39480370  0.89432777     0.30200
C1372       C  0.83768695  0.38030412  0.91802442    -0.19300
C1373       C  0.82243228  0.38142930  0.94149051    -0.28700
C1374       C  0.80480593  0.39768561  0.94029705     0.44200
C1375       C  0.81622671  0.42685801  0.86895587     0.05400
O1376       O  0.85063510  0.39286130  0.87182509    -0.57200
H1377       H  0.85131605  0.36825771  0.91721847     0.18300
O1378       O  0.78952623  0.39970579  0.96253180    -0.63900
H1379       H  0.78970666  0.42502724  0.91661769     0.16800
C1380       C  0.79589938  0.42871764  0.85320242     0.29000
C1381       C  0.79463204  0.44350080  0.82962036    -0.24800
C1382       C  0.81337145  0.45667695  0.82180156    -0.24100
C1383       C  0.83359571  0.45497902  0.83758238     0.40500
C1384       C  0.83495403  0.44009678  0.86096977    -0.26600
O1385       O  0.77753017  0.41554909  0.86004954    -0.58500
H1386       H  0.77899778  0.44481189  0.81749470     0.16100
O1387       O  0.85215846  0.46760291  0.82999677    -0.59900
H1388       H  0.85062500  0.43898562  0.87304860     0.14600
H1389       H  0.77556299  0.39213574  0.95557644     0.46400
H1390       H  0.76674811  0.42588953  0.86986159     0.41800
H1391       H  0.85116115  0.48155317  0.84189067     0.45300
H1392       H  0.84310085  0.38281398  0.85757534     0.36700
C1393       C  0.71260749  0.27303897  0.51449523    -0.27500
C1394       C  0.73193173  0.26923151  0.00117696     0.02100
C1395       C  0.73580468  0.24752819  0.98928210     0.30200
C1396       C  0.71873380  0.23095110  0.99000947    -0.19300
C1397       C  0.69902874  0.23485232  0.50414357    -0.28700
C1398       C  0.69527571  0.25695044  0.51498021     0.44200
C1399       C  0.74989180  0.28709069  0.00132984     0.05400
O1400       O  0.75622280  0.24229936  0.97684495    -0.57200
H1401       H  0.72235942  0.21435287  0.98138167     0.18300
O1402       O  0.67460685  0.26322822  0.52587531    -0.63900
H1403       H  0.70947150  0.28952695  0.52397511     0.16800
C1404       C  0.74528554  0.30928460  0.99170490     0.29000
C1405       C  0.76236106  0.32571895  0.99171637    -0.24800
C1406       C  0.78461511  0.32045515  0.00024493    -0.24100
C1407       C  0.79093818  0.29747267  0.50911935     0.40500
C1408       C  0.77379514  0.28101300  0.51038358    -0.26600
O1409       O  0.72430348  0.31499166  0.98132559    -0.58500
H1410       H  0.75823281  0.34258651  0.98418233     0.16100
O1411       O  0.81259095  0.29140966  0.51637343    -0.59900
H1412       H  0.77795964  0.26419815  0.51807354     0.14600
H1413       H  0.66524460  0.26690416  0.50870834     0.46400
H1414       H  0.72447336  0.31048285  0.96065074     0.41800
H1415       H  0.81928060  0.28524676  0.49833211     0.45300
H1416       H  0.75470261  0.24679000  0.95626725     0.36700
C1417       C  0.59121642  0.21333446  0.85453013    -0.27500
C1418       C  0.59972060  0.19436627  0.86940523     0.02100
C1419       C  0.59157437  0.17266031  0.86179660     0.30200
C1420       C  0.57516255  0.17031110  0.84001122    -0.19300
C1421       C  0.56616167  0.18937133  0.82602804    -0.28700
C1422       C  0.57443139  0.21097993  0.83331999     0.44200
C1423       C  0.61493817  0.19777348  0.89487516     0.05400
O1424       O  0.59810920  0.15387915  0.87713714    -0.57200
H1425       H  0.56877152  0.15360189  0.83477785     0.18300
O1426       O  0.56597149  0.22994178  0.82005073    -0.63900
H1427       H  0.59715751  0.23016225  0.85999290     0.16800
C1428       C  0.63493544  0.18504601  0.89902622     0.29000
C1429       C  0.64705739  0.18681280  0.92512239    -0.24800
C1430       C  0.63976996  0.20150580  0.94714477    -0.24100
C1431       C  0.62104077  0.21572868  0.94179893     0.40500
C1432       C  0.60871675  0.21360812  0.91612819    -0.26600
O1433       O  0.64256330  0.17054545  0.87799686    -0.58500
H1434       H  0.66158969  0.17596778  0.92860519     0.16100
O1435       O  0.61414810  0.23134234  0.96195477    -0.59900
H1436       H  0.59369910  0.22389660  0.91330073     0.14600
H1437       H  0.55281172  0.23457103  0.83199848     0.46400
H1438       H  0.65244602  0.17989094  0.86542481     0.41800
H1439       H  0.62478307  0.24423915  0.95989597     0.45300
H1440       H  0.60675610  0.14438641  0.86329166     0.36700
C1441       C  0.59059672  0.17003163  0.64966116    -0.27500
C1442       C  0.58826819  0.18701415  0.62869683     0.02100
C1443       C  0.57038688  0.20263214  0.63082058     0.30200
C1444       C  0.55522358  0.20134297  0.65400760    -0.19300
C1445       C  0.55765364  0.18454748  0.67524557    -0.28700
C1446       C  0.57536814  0.16867195  0.67281410     0.44200
C1447       C  0.60488081  0.18875288  0.60498753     0.05400
O1448       O  0.56734345  0.21882721  0.60990728    -0.57200
H1449       H  0.54153805  0.21350364  0.65550090     0.18300
O1450       O  0.57810025  0.15202159  0.69318832    -0.63900
H1451       H  0.60436407  0.15796598  0.64816925     0.16800
C1452       C  0.62102160  0.20613646  0.60493420     0.29000
C1453       C  0.63617227  0.20822717  0.58183751    -0.24800
C1454       C  0.63553179  0.19312026  0.55811240    -0.24100
C1455       C  0.61938055  0.17534919  0.55879909     0.40500
C1456       C  0.60426961  0.17333500  0.58203503    -0.26600
O1457       O  0.62237815  0.22095085  0.62776633    -0.58500
H1458       H  0.64800806  0.22201553  0.58309495     0.16100
O1459       O  0.61776677  0.16023328  0.53632170    -0.59900
H1460       H  0.59179906  0.15987553  0.58192672     0.14600
H1461       H  0.56779818  0.13963968  0.68712091     0.46400
H1462       H  0.61528537  0.23516195  0.62082161     0.41800
H1463       H  0.62494732  0.14611486  0.54343503     0.45300
H1464       H  0.57256499  0.23320912  0.61875924     0.36700
C1465       C  0.17374764  0.40483985  0.83718314    -0.27500
C1466       C  0.18914538  0.40471238  0.86030673     0.02100
C1467       C  0.20583655  0.42172168  0.86178273     0.30200
C1468       C  0.20687827  0.43860240  0.84052110    -0.19300
C1469       C  0.19127597  0.43897816  0.81764518    -0.28700
C1470       C  0.17472240  0.42180634  0.81595975     0.44200
C1471       C  0.18642263  0.38840667  0.88452143     0.05400
O1472       O  0.22072939  0.42242347  0.88451919    -0.57200
H1473       H  0.21960479  0.45175112  0.84219562     0.18300
O1474       O  0.15919790  0.42170164  0.79391215    -0.63900
H1475       H  0.16065765  0.39202463  0.83595633     0.16800
C1476       C  0.16770406  0.39019490  0.90321633     0.29000
C1477       C  0.16729472  0.37793909  0.92912064    -0.24800
C1478       C  0.18532579  0.36363010  0.93676155    -0.24100
C1479       C  0.20311864  0.36033915  0.91698010     0.40500
C1480       C  0.20374615  0.37293113  0.89118046    -0.26600
O1481       O  0.15041811  0.40498432  0.89725679    -0.58500
H1482       H  0.15342320  0.38057026  0.94410453     0.16100
O1483       O  0.22093579  0.34648578  0.92384176    -0.59900
H1484       H  0.21823875  0.37136690  0.87695086     0.14600
H1485       H  0.14694361  0.43200518  0.80037633     0.46400
H1486       H  0.15529944  0.41969949  0.90552891     0.41800
H1487       H  0.21678473  0.33142386  0.91596043     0.45300
H1488       H  0.21292630  0.43130640  0.89977317     0.36700
C1489       C  0.18676866  0.37999948  0.59741373    -0.27500
C1490       C  0.18813524  0.40352368  0.59437502     0.02100
C1491       C  0.18821019  0.41306061  0.56655501     0.30200
C1492       C  0.18715303  0.39912476  0.54215755    -0.19300
C1493       C  0.18587798  0.37534824  0.54483658    -0.28700
C1494       C  0.18582820  0.36594924  0.57306730     0.44200
C1495       C  0.18992103  0.41805666  0.62028387     0.05400
O1496       O  0.18938408  0.43609527  0.56295302    -0.57200
H1497       H  0.18765650  0.40743625  0.52146582     0.18300
O1498       O  0.18473244  0.34293926  0.57708446    -0.63900
H1499       H  0.18687007  0.37244266  0.61877149     0.16800
C1500       C  0.17286492  0.41805377  0.64156598     0.29000
C1501       C  0.17446069  0.43275411  0.66522759    -0.24800
C1502       C  0.19303685  0.44736473  0.66801470    -0.24100
C1503       C  0.21035519  0.44696041  0.64717063     0.40500
C1504       C  0.20869814  0.43240850  0.62343072    -0.26600
O1505       O  0.15404321  0.40465501  0.63855712    -0.58500
H1506       H  0.16097674  0.43313095  0.68112240     0.16100
O1507       O  0.22866106  0.46112144  0.64952667    -0.59900
H1508       H  0.22202748  0.43239341  0.60731759     0.14600
H1509       H  0.20029265  0.33824980  0.58243818     0.46400
H1510       H  0.15651561  0.39167983  0.65179663     0.41800
H1511       H  0.23958728  0.45290146  0.66195683     0.45300
H1512       H  0.17348085  0.44142289  0.56379068     0.36700
C1513       C  0.29923724  0.26298395  0.99943929    -0.27500
C1514       C  0.27501017  0.25790743  0.50494996     0.02100
C1515       C  0.27033683  0.23644156  0.51719002     0.30200
C1516       C  0.28730048  0.21970486  0.51828665    -0.19300
C1517       C  0.31108364  0.22433303  0.01029911    -0.28700
C1518       C  0.31622708  0.24659089  0.00119463     0.44200
C1519       C  0.25732537  0.27590571  0.50191704     0.05400
O1520       O  0.24925346  0.23152635  0.52790314    -0.57200
H1521       H  0.28316890  0.20317324  0.52682769     0.18300
O1522       O  0.33786079  0.25253809  0.99353917    -0.63900
H1523       H  0.30355988  0.27948413  0.99083465     0.16800
C1524       C  0.26216376  0.29862667  0.50911160     0.29000
C1525       C  0.24597451  0.31551033  0.50479732    -0.24800
C1526       C  0.22405113  0.31033337  0.49494650    -0.24100
C1527       C  0.22147980  0.28829309  0.98923729     0.40500
C1528       C  0.23811172  0.27140714  0.99240412    -0.26600
O1529       O  0.28252955  0.30456524  0.52116904    -0.58500
H1530       H  0.25052430  0.33278031  0.51013099     0.16100
O1531       O  0.20074243  0.28228915  0.97841852    -0.59900
H1532       H  0.23440172  0.25440578  0.98498762     0.14600
H1533       H  0.34572912  0.25566391  0.01206402     0.46400
H1534       H  0.28069295  0.30189165  0.54222232     0.41800
H1535       H  0.19167459  0.27771860  0.99550514     0.45300
H1536       H  0.24893630  0.23827886  0.54755014     0.36700
C1537       C  0.37453310  0.17545682  0.60980379    -0.27500
C1538       C  0.39356269  0.18959060  0.61305447     0.02100
C1539       C  0.39913300  0.20456574  0.59037803     0.30200
C1540       C  0.38615090  0.20488975  0.56501643    -0.19300
C1541       C  0.36759437  0.19027391  0.56132343    -0.28700
C1542       C  0.36162816  0.17568649  0.58422016     0.44200
C1543       C  0.40845247  0.18746914  0.63906877     0.05400
O1544       O  0.41836303  0.21757106  0.59176968    -0.57200
H1545       H  0.39116308  0.21614495  0.54764708     0.18300
O1546       O  0.34400049  0.16075425  0.58131752    -0.63900
H1547       H  0.37001210  0.16374980  0.62689566     0.16800
C1548       C  0.41520506  0.20662824  0.65521543     0.29000
C1549       C  0.43125774  0.20447617  0.67739903    -0.24800
C1550       C  0.44038803  0.18326952  0.68452602    -0.24100
C1551       C  0.43253070  0.16390104  0.66980603     0.40500
C1552       C  0.41689869  0.16609931  0.64711097    -0.26600
O1553       O  0.40637559  0.22759710  0.64933745    -0.58500
H1554       H  0.43684951  0.21947377  0.68887320     0.16100
O1555       O  0.44087049  0.14288174  0.67652505    -0.59900
H1556       H  0.41187262  0.15112168  0.63518044     0.14600
H1557       H  0.35085120  0.14675281  0.57332016     0.46400
H1558       H  0.39222352  0.22846812  0.66082102     0.41800
H1559       H  0.43190558  0.13779724  0.69346287     0.45300
H1560       H  0.41305147  0.23350574  0.59211352     0.36700
C1561       C  0.40482225  0.16304189  0.93080194    -0.27500
C1562       C  0.40272904  0.17778656  0.90724968     0.02100
C1563       C  0.38492294  0.19346551  0.90676911     0.30200
C1564       C  0.37013630  0.19514059  0.93025683    -0.19300
C1565       C  0.37284929  0.18146207  0.95506163    -0.28700
C1566       C  0.38994970  0.16459660  0.95440299     0.44200
C1567       C  0.41956970  0.17757178  0.88359076     0.05400
O1568       O  0.38153907  0.20692513  0.88295695    -0.57200
H1569       H  0.35657632  0.20716546  0.92816680     0.18300
O1570       O  0.39270117  0.14994635  0.97716265    -0.63900
H1571       H  0.41831226  0.15061675  0.93116785     0.16800
C1572       C  0.43349080  0.19658106  0.87892526     0.29000
C1573       C  0.44804613  0.19719800  0.85511349    -0.24800
C1574       C  0.44922379  0.17884211  0.83592975    -0.24100
C1575       C  0.43592235  0.15946985  0.84111728     0.40500
C1576       C  0.42111569  0.15894023  0.86483310    -0.26600
O1577       O  0.43284774  0.21471208  0.89748062    -0.58500
H1578       H  0.45853338  0.21200158  0.85160256     0.16100
O1579       O  0.43717796  0.14111879  0.82299166    -0.59900
H1580       H  0.41057277  0.14417780  0.86832945     0.14600
H1581       H  0.38445311  0.13600107  0.97150929     0.46400
H1582       H  0.44311981  0.21060334  0.91360431     0.41800
H1583       H  0.44990500  0.13188942  0.83050384     0.45300
H1584       H  0.38700750  0.22217265  0.88863456     0.36700
C1585       C  0.82924854  0.61944771  0.90341210    -0.27500
C1586       C  0.81192243  0.62293905  0.88311474     0.02100
C1587       C  0.79574132  0.64007084  0.88853096     0.30200
C1588       C  0.79657954  0.65263243  0.91436134    -0.19300
C1589       C  0.81340906  0.64833252  0.93501973    -0.28700
C1590       C  0.83023373  0.63212077  0.92889274     0.44200
C1591       C  0.81030577  0.60755470  0.85757438     0.05400
O1592       O  0.77870055  0.64425810  0.86913382    -0.57200
H1593       H  0.78352039  0.66503871  0.91881264     0.18300
O1594       O  0.84734916  0.62796538  0.94822004    -0.63900
H1595       H  0.84167330  0.60622368  0.90007444     0.16800
C1596       C  0.82955419  0.60235061  0.84070298     0.29000
C1597       C  0.82832447  0.58566362  0.81914884    -0.24800
C1598       C  0.80800010  0.57417917  0.81369091    -0.24100
C1599       C  0.78849258  0.58014634  0.82945125     0.40500
C1600       C  0.78979759  0.59643985  0.85145332    -0.26600
O1601       O  0.84950069  0.61384177  0.84477832    -0.58500
H1602       H  0.84335804  0.58149328  0.80680956     0.16100
O1603       O  0.76831852  0.56936950  0.82437670    -0.59900
H1604       H  0.77487950  0.59986447  0.86436182     0.14600
H1605       H  0.85868268  0.64004492  0.94468905     0.46400
H1606       H  0.86029401  0.60254321  0.85262928     0.41800
H1607       H  0.76123640  0.57786125  0.80824970     0.45300
H1608       H  0.78537147  0.65471008  0.85467311     0.36700
C1609       C  0.79133036  0.61247446  0.57072317    -0.27500
C1610       C  0.80864718  0.61163635  0.59135364     0.02100
C1611       C  0.82740875  0.62609455  0.58835990     0.30200
C1612       C  0.82872387  0.64101300  0.56499136    -0.19300
C1613       C  0.81126819  0.64220684  0.54421628    -0.28700
C1614       C  0.79239289  0.62764839  0.54755373     0.44200
C1615       C  0.80717444  0.59548399  0.61575793     0.05400
O1616       O  0.84464162  0.62583368  0.60824674    -0.57200
H1617       H  0.84368672  0.65133315  0.56371814     0.18300
O1618       O  0.77505998  0.62777319  0.52779132    -0.63900
H1619       H  0.77696314  0.60115183  0.57239029     0.16800
C1620       C  0.78794294  0.59479248  0.63382282     0.29000
C1621       C  0.78725970  0.57977248  0.65721601    -0.24800
C1622       C  0.80552607  0.56529499  0.66271109    -0.24100
C1623       C  0.82463720  0.56582806  0.64461127     0.40500
C1624       C  0.82531496  0.58073644  0.62121065    -0.26600
O1625       O  0.77019824  0.60938136  0.62948332    -0.58500
H1626       H  0.77251906  0.57944561  0.67116565     0.16100
O1627       O  0.84265336  0.55171187  0.64958790    -0.59900
H1628       H  0.84006052  0.58079327  0.60726383     0.14600
H1629       H  0.76236668  0.63572696  0.53750489     0.46400
H1630       H  0.75787228  0.59995283  0.62128342     0.41800
H1631       H  0.85226697  0.55984727  0.66378142     0.45300
H1632       H  0.83961613  0.63607907  0.62399944     0.36700
C1633       C  0.75979995  0.74375969  0.98039181    -0.27500
C1634       C  0.73921355  0.73943605  0.49402807     0.02100
C1635       C  0.73457607  0.71708122  0.50293992     0.30200
C1636       C  0.75109724  0.70031761  0.50039501    -0.19300
C1637       C  0.77293637  0.70537714  0.49018790    -0.28700
C1638       C  0.77674751  0.72712717  0.97858165     0.44200
C1639       C  0.72178192  0.75752774  0.49718634     0.05400
O1640       O  0.71416244  0.71150733  0.51517115    -0.57200
H1641       H  0.74696099  0.68333024  0.50748957     0.18300
O1642       O  0.79797275  0.73324695  0.96948977    -0.63900
H1643       H  0.76370815  0.76089289  0.97369507     0.16800
C1644       C  0.72672736  0.77853534  0.51032996     0.29000
C1645       C  0.70966970  0.79493442  0.51358727    -0.24800
C1646       C  0.68673127  0.79009940  0.00162439    -0.24100
C1647       C  0.68168644  0.76877312  0.98916865     0.40500
C1648       C  0.69872424  0.75273242  0.98508563    -0.26600
O1649       O  0.74795181  0.78288235  0.52100495    -0.58500
H1650       H  0.71393806  0.81085304  0.52364716     0.16100
O1651       O  0.66003339  0.76305280  0.98137541    -0.59900
H1652       H  0.69450995  0.73700496  0.97427616     0.14600
H1653       H  0.80493209  0.74112112  0.98621706     0.46400
H1654       H  0.75474447  0.79397655  0.50743189     0.41800
H1655       H  0.65235497  0.75889990  0.99970981     0.45300
H1656       H  0.71578711  0.71516108  0.53601548     0.36700
C1657       C  0.59253429  0.81447710  0.66549640    -0.27500
C1658       C  0.59633518  0.83196381  0.64542750     0.02100
C1659       C  0.58272901  0.85160236  0.64684128     0.30200
C1660       C  0.56526310  0.85315135  0.66733063    -0.19300
C1661       C  0.56116332  0.83541608  0.68676216    -0.28700
C1662       C  0.57513393  0.81612059  0.68604335     0.44200
C1663       C  0.61231575  0.82837147  0.62087008     0.05400
O1664       O  0.58517890  0.86855730  0.62679949    -0.57200
H1665       H  0.55445728  0.86797544  0.66753704     0.18300
O1666       O  0.57149229  0.79853523  0.70485354    -0.63900
H1667       H  0.60269148  0.79921468  0.66466622     0.16800
C1668       C  0.62901299  0.84447674  0.61343643     0.29000
C1669       C  0.64062192  0.84268069  0.58698186    -0.24800
C1670       C  0.63595850  0.82479124  0.56789878    -0.24100
C1671       C  0.62103218  0.80751594  0.57671070     0.40500
C1672       C  0.60933071  0.80939806  0.60292973    -0.26600
O1673       O  0.63337354  0.86255145  0.63122003    -0.58500
H1674       H  0.65218650  0.85601330  0.58056989     0.16100
O1675       O  0.61666109  0.78942340  0.55893468    -0.59900
H1676       H  0.59686000  0.79664306  0.60841070     0.14600
H1677       H  0.55986152  0.78893339  0.69541398     0.46400
H1678       H  0.64394091  0.85667529  0.64608626     0.41800
H1679       H  0.62987991  0.77922153  0.56115674     0.45300
H1680       H  0.59153133  0.88159818  0.63762655     0.36700
C1681       C  0.61513808  0.83454467  0.90588998    -0.27500
C1682       C  0.59164679  0.83442230  0.90979233     0.02100
C1683       C  0.58281752  0.83342675  0.93798357     0.30200
C1684       C  0.59740860  0.83252506  0.96182888    -0.19300
C1685       C  0.62114581  0.83272202  0.95826903    -0.28700
C1686       C  0.62980275  0.83404072  0.92968062     0.44200
C1687       C  0.57649434  0.83537152  0.88427756     0.05400
O1688       O  0.55986502  0.83227086  0.94236364    -0.57200
H1689       H  0.58958239  0.83164766  0.98281102     0.18300
O1690       O  0.65270215  0.83418204  0.92469134    -0.63900
H1691       H  0.62216717  0.83529437  0.88424847     0.16800
C1692       C  0.56086123  0.85319526  0.88087928     0.29000
C1693       C  0.54644801  0.85361018  0.85687729    -0.24800
C1694       C  0.54757344  0.83655539  0.83579666    -0.24100
C1695       C  0.56338980  0.81889242  0.83892783     0.40500
C1696       C  0.57774199  0.81840153  0.86304566    -0.26600
O1697       O  0.55966746  0.87038852  0.90078672    -0.58500
H1698       H  0.53440098  0.86732498  0.85458794     0.16100
O1699       O  0.56438024  0.80170906  0.81896789    -0.59900
H1700       H  0.58967228  0.80458982  0.86539204     0.14600
H1701       H  0.65661800  0.85025170  0.92098372     0.46400
H1702       H  0.57196167  0.88101637  0.89540549     0.41800
H1703       H  0.57791350  0.80499821  0.80698114     0.45300
H1704       H  0.55560971  0.84695875  0.95125938     0.36700
C1705       C  0.39985947  0.81162649  0.84260688    -0.27500
C1706       C  0.39816963  0.82779865  0.86484879     0.02100
C1707       C  0.41245511  0.84695186  0.86408330     0.30200
C1708       C  0.42832779  0.84939755  0.84173530    -0.19300
C1709       C  0.43049452  0.83284580  0.82011309    -0.28700
C1710       C  0.41596079  0.81394773  0.82051995     0.44200
C1711       C  0.38323078  0.82331925  0.89018331     0.05400
O1712       O  0.41243831  0.86227631  0.88642700    -0.57200
H1713       H  0.43974431  0.86376276  0.84200595     0.18300
O1714       O  0.41797210  0.79722687  0.80006914    -0.63900
H1715       H  0.38914543  0.79673495  0.84292320     0.16800
C1716       C  0.36772736  0.83963045  0.90051900     0.29000
C1717       C  0.35593421  0.83584316  0.92641690    -0.24800
C1718       C  0.35931351  0.81588027  0.94225063    -0.24100
C1719       C  0.37360344  0.79897134  0.93101186     0.40500
C1720       C  0.38540481  0.80273049  0.90518700    -0.26600
O1721       O  0.36446454  0.85959721  0.88597672    -0.58500
H1722       H  0.34498020  0.84899654  0.93488481     0.16100
O1723       O  0.37684620  0.77907913  0.94574452    -0.59900
H1724       H  0.39705230  0.78988759  0.89751058     0.14600
H1725       H  0.42947920  0.78664210  0.80787165     0.46400
H1726       H  0.35382127  0.85587932  0.87009025     0.41800
H1727       H  0.36366128  0.76947785  0.94064956     0.45300
H1728       H  0.40680468  0.87665139  0.87798948     0.36700
C1729       C  0.41859041  0.84466035  0.63401987    -0.27500
C1730       C  0.41394353  0.82292363  0.62315610     0.02100
C1731       C  0.42457630  0.80399654  0.63586705     0.30200
C1732       C  0.43922929  0.80703245  0.65941667    -0.19300
C1733       C  0.44368835  0.82877570  0.67024317    -0.28700
C1734       C  0.43346795  0.84766365  0.65719921     0.44200
C1735       C  0.39816680  0.82051823  0.59836956     0.05400
O1736       O  0.42166526  0.78272107  0.62444625    -0.57200
H1737       H  0.44736698  0.79243159  0.66906617     0.18300
O1738       O  0.43767439  0.86909478  0.66729588    -0.63900
H1739       H  0.41056184  0.85938370  0.62452962     0.16800
C1740       C  0.37906470  0.80638988  0.59996265     0.29000
C1741       C  0.36392986  0.80524744  0.57669036    -0.24800
C1742       C  0.36743700  0.81798694  0.55120888    -0.24100
C1743       C  0.38610256  0.83302683  0.55055555     0.40500
C1744       C  0.40140862  0.83381561  0.57360247    -0.26600
O1745       O  0.37418892  0.79485308  0.62499025    -0.58500
H1746       H  0.34914002  0.79487456  0.57972024     0.16100
O1747       O  0.38967213  0.84703553  0.52732806    -0.59900
H1748       H  0.41579586  0.84515127  0.57225840     0.14600
H1749       H  0.45133325  0.87422330  0.65667536     0.46400
H1750       H  0.37492647  0.77855542  0.61984156     0.41800
H1751       H  0.38218772  0.86151365  0.53250487     0.45300
H1752       H  0.41440299  0.77364259  0.63993546     0.36700
C1753       C  0.28983781  0.73997926  0.50861124    -0.27500
C1754       C  0.26889853  0.74536263  0.99587965     0.02100
C1755       C  0.26539561  0.76703089  0.98380502     0.30200
C1756       C  0.28274026  0.78331027  0.98456761    -0.19300
C1757       C  0.30321040  0.77798813  0.49704216    -0.28700
C1758       C  0.30722072  0.75594914  0.50794878     0.44200
C1759       C  0.25062090  0.72798060  0.99692056     0.05400
O1760       O  0.24509646  0.77249895  0.97125419    -0.57200
H1761       H  0.27942706  0.79993989  0.97578781     0.18300
O1762       O  0.32817956  0.74956380  0.51773822    -0.63900
H1763       H  0.29307192  0.72373279  0.51866088     0.16800
C1764       C  0.25469742  0.70561133  0.98763443     0.29000
C1765       C  0.23765700  0.68929653  0.98955815    -0.24800
C1766       C  0.21589043  0.69482080  0.99968769    -0.24100
C1767       C  0.21125462  0.71686688  0.50917340     0.40500
C1768       C  0.22859000  0.73310856  0.50795095    -0.26600
O1769       O  0.27518863  0.69953483  0.97601899    -0.58500
H1770       H  0.24143520  0.67224330  0.98238586     0.16100
O1771       O  0.18992671  0.72354106  0.51716102    -0.59900
H1772       H  0.22490798  0.75036286  0.51439386     0.14600
H1773       H  0.33718893  0.74648380  0.50005524     0.46400
H1774       H  0.27440855  0.70412994  0.95540573     0.41800
H1775       H  0.18310471  0.73001969  0.49940959     0.45300
H1776       H  0.24648290  0.76752596  0.95083233     0.36700
C1777       C  0.16253250  0.61231616  0.59127608    -0.27500
C1778       C  0.18266781  0.61375327  0.60732352     0.02100
C1779       C  0.19970127  0.62889541  0.59805818     0.30200
C1780       C  0.19671630  0.64165141  0.57266851    -0.19300
C1781       C  0.17693698  0.63939408  0.55612856    -0.28700
C1782       C  0.15960359  0.62497610  0.56597340     0.44200
C1783       C  0.18608658  0.59823042  0.63238707     0.05400
O1784       O  0.21959761  0.63081055  0.61312313    -0.57200
H1785       H  0.21031600  0.65245595  0.56511547     0.18300
O1786       O  0.14009740  0.62237679  0.55024657    -0.63900
H1787       H  0.14935898  0.60059266  0.59770159     0.16800
C1788       C  0.16978633  0.59650891  0.65459634     0.29000
C1789       C  0.17209183  0.58004288  0.67627854    -0.24800
C1790       C  0.19048350  0.56500893  0.67618870    -0.24100
C1791       C  0.20720029  0.56722755  0.65463965     0.40500
C1792       C  0.20490403  0.58365478  0.63293114    -0.26600
O1793       O  0.15170754  0.61107928  0.65544980    -0.58500
H1794       H  0.15919877  0.57864783  0.69286248     0.16100
O1795       O  0.22547902  0.55292113  0.65411551    -0.59900
H1796       H  0.21749520  0.58451080  0.61591936     0.14600
H1797       H  0.13021685  0.63510581  0.55628908     0.46400
H1798       H  0.13833980  0.60181425  0.65011669     0.41800
H1799       H  0.23658929  0.55972201  0.66764949     0.45300
H1800       H  0.21640471  0.64184619  0.62878082     0.36700
C1801       C  0.19358188  0.60117181  0.92018487    -0.27500
C1802       C  0.17980134  0.60466054  0.89594827     0.02100
C1803       C  0.16459764  0.62300539  0.89598803     0.30200
C1804       C  0.16272637  0.63691345  0.92042162    -0.19300
C1805       C  0.17619778  0.63317471  0.94519645    -0.28700
C1806       C  0.19231441  0.61545875  0.94422700     0.44200
C1807       C  0.18154976  0.58897743  0.87092884     0.05400
O1808       O  0.15182978  0.62785607  0.87199356    -0.57200
H1809       H  0.15124724  0.65104481  0.91899183     0.18300
O1810       O  0.20748754  0.61242448  0.96638145    -0.63900
H1811       H  0.20550005  0.58723650  0.92057181     0.16800
C1812       C  0.20284647  0.58280118  0.85954387     0.29000
C1813       C  0.20428782  0.56655234  0.83765934    -0.24800
C1814       C  0.18467554  0.55684629  0.82603960    -0.24100
C1815       C  0.16335040  0.56357636  0.83646851     0.40500
C1816       C  0.16189160  0.57927342  0.85908606    -0.26600
O1817       O  0.22236542  0.59265952  0.86951059    -0.58500
H1818       H  0.22074968  0.56176641  0.82930998     0.16100
O1819       O  0.14391575  0.55453334  0.82508215    -0.59900
H1820       H  0.14538655  0.58362141  0.86765621     0.14600
H1821       H  0.20328112  0.59784933  0.97559521     0.46400
H1822       H  0.22395367  0.60685915  0.85824474     0.41800
H1823       H  0.14029381  0.56415501  0.80812635     0.45300
H1824       H  0.16176297  0.63721440  0.85948964     0.36700
C1825       C  0.25090248  0.91834719  0.51754730    -0.27500
C1826       C  0.26471176  0.91510348  0.99680689     0.02100
C1827       C  0.26085121  0.92949372  0.97309101     0.30200
C1828       C  0.24581702  0.94776165  0.97576021    -0.19300
C1829       C  0.23314080  0.95188804  0.49693855    -0.28700
C1830       C  0.23625134  0.93683489  0.52033078     0.44200
C1831       C  0.27988288  0.89514458  0.99453637     0.05400
O1832       O  0.27078041  0.92512090  0.94682825    -0.57200
H1833       H  0.24282555  0.95834693  0.95701504     0.18300
O1834       O  0.22438663  0.93942363  0.54563122    -0.63900
H1835       H  0.25292785  0.90685734  0.53563870     0.16800
C1836       C  0.30313515  0.89760295  0.98843284     0.29000
C1837       C  0.31739357  0.87862033  0.98886381    -0.24800
C1838       C  0.30739553  0.85702033  0.49279788    -0.24100
C1839       C  0.28388166  0.85422952  0.49590231     0.40500
C1840       C  0.26950608  0.87300463  0.49419077    -0.26600
O1841       O  0.31223987  0.91857000  0.98319596    -0.58500
H1842       H  0.33534841  0.88079358  0.98494744     0.16100
O1843       O  0.27486932  0.83348856  0.50244416    -0.59900
H1844       H  0.25147229  0.87065168  0.49724570     0.14600
H1845       H  0.23489354  0.94733842  0.55896792     0.46400
H1846       H  0.31574858  0.92490181  0.00256127     0.41800
H1847       H  0.27597618  0.83217426  0.52378681     0.45300
H1848       H  0.28231536  0.93715287  0.94422960     0.36700
C1849       C  0.26451711  0.07391534  0.53459208    -0.27500
C1850       C  0.26617148  0.09036311  0.01218460     0.02100
C1851       C  0.25661801  0.08389399  0.98554102     0.30200
C1852       C  0.24153341  0.06557377  0.98426177    -0.19300
C1853       C  0.23549216  0.05357596  0.00941477    -0.28700
C1854       C  0.24944633  0.05568248  0.53229089     0.44200
C1855       C  0.28183317  0.10989316  0.01429973     0.05400
O1856       O  0.26250158  0.09494862  0.96053425    -0.57200
H1857       H  0.23432867  0.06099111  0.96352085     0.18300
O1858       O  0.24798730  0.04055145  0.55472748    -0.63900
H1859       H  0.27427890  0.07601029  0.55425483     0.16800
C1860       C  0.27451636  0.13200874  0.00773779     0.29000
C1861       C  0.28986210  0.15008671  0.00866797    -0.24800
C1862       C  0.31254911  0.14640840  0.01612695    -0.24100
C1863       C  0.32066232  0.12357941  0.51965132     0.40500
C1864       C  0.30536844  0.10544759  0.51996784    -0.26600
O1865       O  0.25254781  0.13600906  0.99967862    -0.58500
H1866       H  0.28430470  0.16678601  0.00211708     0.16100
O1867       O  0.34333800  0.11944156  0.52320801    -0.59900
H1868       H  0.31171549  0.08835576  0.52259192     0.14600
H1869       H  0.23809197  0.04792750  0.56929066     0.46400
H1870       H  0.24431645  0.13890085  0.01801596     0.41800
H1871       H  0.34882544  0.11438975  0.50397614     0.45300
H1872       H  0.24916742  0.10432010  0.95541216     0.36700
C1873       C  0.89586569  0.30234922  0.51779686    -0.27500
C1874       C  0.89637628  0.28446700  0.99653363     0.02100
C1875       C  0.88209976  0.28614646  0.97224793     0.30200
C1876       C  0.86456639  0.30209400  0.97193601    -0.19300
C1877       C  0.86088436  0.31661046  0.99558466    -0.28700
C1878       C  0.87826878  0.31828789  0.51728012     0.44200
C1879       C  0.91577828  0.26838463  0.99682442     0.05400
O1880       O  0.88474023  0.27176405  0.94913273    -0.57200
H1881       H  0.85392126  0.30332497  0.95291272     0.18300
O1882       O  0.87729452  0.33474158  0.53820278    -0.63900
H1883       H  0.90839324  0.30323027  0.53486841     0.16800
C1884       C  0.93259815  0.26888415  0.97511271     0.29000
C1885       C  0.95040547  0.25317429  0.97551214    -0.24800
C1886       C  0.95219688  0.23716620  0.99784046    -0.24100
C1887       C  0.93817366  0.24049966  0.52238025     0.40500
C1888       C  0.92069368  0.25648036  0.52147727    -0.26600
O1889       O  0.93201193  0.28488700  0.95363453    -0.58500
H1890       H  0.96309041  0.25379142  0.95859300     0.16100
O1891       O  0.94098802  0.22795970  0.54708679    -0.59900
H1892       H  0.90982528  0.25849123  0.54019826     0.14600
H1893       H  0.88555733  0.34786943  0.52998144     0.46400
H1894       H  0.93891292  0.29863188  0.96225800     0.41800
H1895       H  0.93138336  0.21434655  0.54435451     0.45300
H1896       H  0.88958727  0.28145586  0.93273642     0.36700
C1897       C  0.07290743  0.26886559  0.51287086    -0.27500
C1898       C  0.09235373  0.26535744  0.99179937     0.02100
C1899       C  0.09033077  0.24704656  0.97247200     0.30200
C1900       C  0.07156661  0.23257446  0.97423142    -0.19300
C1901       C  0.05297366  0.23568390  0.49507765    -0.28700
C1902       C  0.05456946  0.25392411  0.51458601     0.44200
C1903       C  0.11261086  0.28025564  0.99173674     0.05400
O1904       O  0.10727701  0.24235099  0.95305654    -0.57200
H1905       H  0.07053494  0.21828327  0.95956568     0.18300
O1906       O  0.03828506  0.25737121  0.53528399    -0.63900
H1907       H  0.07406908  0.28270652  0.52821015     0.16800
C1908       C  0.11916320  0.29271389  0.96703775     0.29000
C1909       C  0.13763012  0.30765227  0.96850504    -0.24800
C1910       C  0.14711605  0.31061108  0.49462097    -0.24100
C1911       C  0.14126760  0.29723088  0.51871320     0.40500
C1912       C  0.12273707  0.28263252  0.51724046    -0.26600
O1913       O  0.10713787  0.29109004  0.94175524    -0.58500
H1914       H  0.14210166  0.31763650  0.94968525     0.16100
O1915       O  0.15338900  0.29853949  0.54397069    -0.59900
H1916       H  0.11834970  0.27257288  0.53603063     0.14600
H1917       H  0.02654575  0.26673172  0.52569975     0.46400
H1918       H  0.09454246  0.30207180  0.94380346     0.41800
H1919       H  0.16661218  0.28845226  0.54107277     0.45300
H1920       H  0.10079282  0.24564031  0.93372471     0.36700
C1921       C  0.10584881  0.07315973  0.52702797    -0.27500
C1922       C  0.10276535  0.08635002  0.00365368     0.02100
C1923       C  0.11822964  0.08388886  0.98067712     0.30200
C1924       C  0.13514758  0.06728239  0.98200313    -0.19300
C1925       C  0.13711658  0.05288298  0.00610228    -0.28700
C1926       C  0.12273972  0.05648516  0.52770927     0.44200
C1927       C  0.08486826  0.10406527  0.00291196     0.05400
O1928       O  0.11763303  0.09841159  0.95751154    -0.57200
H1929       H  0.14695829  0.06587653  0.96415057     0.18300
O1930       O  0.12376578  0.04211860  0.55097379    -0.63900
H1931       H  0.09406549  0.07444484  0.54492812     0.16800
C1932       C  0.06908503  0.10520490  0.98009188     0.29000
C1933       C  0.05295977  0.12261532  0.97936195    -0.24800
C1934       C  0.05148766  0.13868293  0.50155398    -0.24100
C1935       C  0.06759383  0.13817724  0.52412873     0.40500
C1936       C  0.08433383  0.12138174  0.52459580    -0.26600
O1937       O  0.06904209  0.08917129  0.95861192    -0.58500
H1938       H  0.04102409  0.12316457  0.96159009     0.16100
O1939       O  0.06743877  0.15425317  0.54556846    -0.59900
H1940       H  0.09672637  0.12138751  0.54187121     0.14600
H1941       H  0.11445715  0.02882954  0.54542155     0.46400
H1942       H  0.05855157  0.07720836  0.96546072     0.41800
H1943       H  0.07666042  0.16695092  0.53792452     0.45300
H1944       H  0.11275866  0.08907559  0.94078821     0.36700
C1945       C  0.74510993  0.93122869  0.53575186    -0.27500
C1946       C  0.73493761  0.92214348  0.01073830     0.02100
C1947       C  0.74183868  0.93056526  0.98369548     0.30200
C1948       C  0.75711968  0.94870160  0.98214804    -0.19300
C1949       C  0.76598328  0.95863994  0.00742461    -0.28700
C1950       C  0.76105027  0.94869891  0.53355785     0.44200
C1951       C  0.71837060  0.90340470  0.01271886     0.05400
O1952       O  0.73335259  0.92145748  0.95864520    -0.57200
H1953       H  0.76205096  0.95494303  0.96103343     0.18300
O1954       O  0.77226241  0.95536757  0.55810321    -0.63900
H1955       H  0.74200041  0.92342183  0.55659347     0.16800
C1956       C  0.72526622  0.88070274  0.00991283     0.29000
C1957       C  0.70909221  0.86330569  0.00979815    -0.24800
C1958       C  0.68596422  0.86826192  0.01250014    -0.24100
C1959       C  0.67770325  0.89224784  0.51570333     0.40500
C1960       C  0.69361306  0.90983428  0.51525527    -0.26600
O1961       O  0.74768003  0.87546201  0.00612141    -0.58500
H1962       H  0.71456481  0.84607656  0.00616335     0.16100
O1963       O  0.65510432  0.89749548  0.51666659    -0.59900
H1964       H  0.68784500  0.92725370  0.51536724     0.14600
H1965       H  0.78576230  0.94542548  0.55921113     0.46400
H1966       H  0.75375438  0.87333186  0.02593142     0.41800
H1967       H  0.65083134  0.89622598  0.53735760     0.45300
H1968       H  0.74399441  0.90913422  0.95339705     0.36700
C1969       C  0.74701025  0.08974683  0.96540644    -0.27500
C1970       C  0.73857685  0.09925921  0.49200460     0.02100
C1971       C  0.73814527  0.08464599  0.51602937     0.30200
C1972       C  0.75258931  0.06585532  0.51703619    -0.19300
C1973       C  0.76752475  0.06123465  0.49412497    -0.28700
C1974       C  0.76162261  0.07107475  0.96711911     0.44200
C1975       C  0.72370692  0.11936804  0.49100366     0.05400
O1976       O  0.72373793  0.08870574  0.53872420    -0.57200
H1977       H  0.75208217  0.05485697  0.53577917     0.18300
O1978       O  0.77073460  0.06267370  0.94201583    -0.63900
H1979       H  0.74321874  0.09705520  0.94446356     0.16800
C1980       C  0.73248919  0.14120656  0.49583506     0.29000
C1981       C  0.71781296  0.15979073  0.49781003    -0.24800
C1982       C  0.69439437  0.15682908  0.49484831    -0.24100
C1983       C  0.68373757  0.13350988  0.99587541     0.40500
C1984       C  0.69854602  0.11509551  0.99438684    -0.26600
O1985       O  0.75517712  0.14426730  0.50069152    -0.58500
H1986       H  0.72460809  0.17627157  0.50327063     0.16100
O1987       O  0.66131946  0.12950157  0.00167494    -0.59900
H1988       H  0.69217839  0.09819944  0.99858575     0.14600
H1989       H  0.78438371  0.07202307  0.93835014     0.46400
H1990       H  0.76171094  0.14780603  0.48145175     0.41800
H1991       H  0.65353014  0.13082582  0.98275188     0.45300
H1992       H  0.73210453  0.09912982  0.55171758     0.36700
C1993       C  0.92027487  0.12276089  0.97549046    -0.27500
C1994       C  0.91558920  0.10890757  0.49858484     0.02100
C1995       C  0.93077059  0.10955390  0.52206299     0.30200
C1996       C  0.94822744  0.12563724  0.52257813    -0.19300
C1997       C  0.95180136  0.14147430  0.99973693    -0.28700
C1998       C  0.93769776  0.13878586  0.97526778     0.44200
C1999       C  0.89718900  0.09198665  0.49725839     0.05400
O2000       O  0.92929353  0.09383349  0.54383619    -0.57200
H2001       H  0.96004993  0.12564185  0.54048814     0.18300
O2002       O  0.94064012  0.15179697  0.95097848    -0.63900
H2003       H  0.90961765  0.12101454  0.95654347     0.16800
C2004       C  0.88027267  0.09141501  0.51862245     0.29000
C2005       C  0.86347705  0.07480494  0.51759575    -0.24800
C2006       C  0.86330133  0.05909789  0.99788819    -0.24100
C2007       C  0.87984454  0.05980973  0.97590551     0.40500
C2008       C  0.89690915  0.07629104  0.97671743    -0.26600
O2009       O  0.87996530  0.10708226  0.54054507    -0.58500
H2010       H  0.85074571  0.07452959  0.53447790     0.16100
O2011       O  0.87984010  0.04421451  0.95390200    -0.59900
H2012       H  0.90975210  0.07634031  0.95997176     0.14600
H2013       H  0.93127968  0.16550527  0.95425723     0.46400
H2014       H  0.87121757  0.12006893  0.53281378     0.41800
H2015       H  0.88901173  0.03135656  0.96117266     0.45300
H2016       H  0.92340841  0.10221580  0.56085059     0.36700
C2017       C  0.86982304  0.73779298  0.50944255    -0.27500
C2018       C  0.88634044  0.73556504  0.98376636     0.02100
C2019       C  0.88366965  0.71825292  0.96290758     0.30200
C2020       C  0.86473138  0.70386637  0.96409033    -0.19300
C2021       C  0.84924934  0.70611059  0.48868580    -0.28700
C2022       C  0.85111268  0.72334596  0.50957106     0.44200
C2023       C  0.90723636  0.74958513  0.98560623     0.05400
O2024       O  0.90036518  0.71401925  0.94297563    -0.57200
H2025       H  0.86335258  0.68994954  0.94888894     0.18300
O2026       O  0.83484320  0.72588418  0.53053139    -0.63900
H2027       H  0.87108149  0.75084170  0.52586405     0.16800
C2028       C  0.91567459  0.76162332  0.96163546     0.29000
C2029       C  0.93487302  0.77533246  0.96463568    -0.24800
C2030       C  0.94569613  0.77830687  0.49709183    -0.24100
C2031       C  0.93798008  0.76547143  0.52086247     0.40500
C2032       C  0.91914439  0.75122719  0.51776564    -0.26600
O2033       O  0.90484402  0.76083723  0.93542282    -0.58500
H2034       H  0.94079109  0.78458393  0.94586749     0.16100
O2035       O  0.94849735  0.76682029  0.54724990    -0.59900
H2036       H  0.91343480  0.74148463  0.53624347     0.14600
H2037       H  0.84112906  0.71849046  0.54803139     0.46400
H2038       H  0.89337511  0.77307972  0.93621088     0.41800
H2039       H  0.96000170  0.75459438  0.54707308     0.45300
H2040       H  0.89352422  0.71739194  0.92386420     0.36700
C2041       C  0.07316673  0.74923652  0.97342703    -0.27500
C2042       C  0.08304427  0.74321900  0.50629383     0.02100
C2043       C  0.07811834  0.75719339  0.53017147     0.30200
C2044       C  0.06024340  0.77278278  0.52863764    -0.19300
C2045       C  0.04826676  0.77670985  0.99663811    -0.28700
C2046       C  0.05497773  0.76447079  0.97183592     0.44200
C2047       C  0.10272833  0.72748199  0.50638838     0.05400
O2048       O  0.09161796  0.75681202  0.55432229    -0.57200
H2049       H  0.05713178  0.78370601  0.54705930     0.18300
O2050       O  0.04396180  0.76719909  0.94596532    -0.63900
H2051       H  0.07802704  0.73985986  0.95424281     0.16800
C2052       C  0.10567065  0.71087013  0.52806844     0.29000
C2053       C  0.12402068  0.69578260  0.52663303    -0.24800
C2054       C  0.13980513  0.69793929  0.00083097    -0.24100
C2055       C  0.13971941  0.71602500  0.98099668     0.40500
C2056       C  0.12204001  0.73178075  0.98125019    -0.26600
O2057       O  0.09022006  0.70857845  0.55001665    -0.58500
H2058       H  0.12579173  0.68273805  0.54295734     0.16100
O2059       O  0.15679683  0.71825504  0.96106841    -0.59900
H2060       H  0.12224015  0.74561656  0.96586052     0.14600
H2061       H  0.03148683  0.75596424  0.94626967     0.46400
H2062       H  0.07813463  0.69873333  0.54204500     0.41800
H2063       H  0.15102388  0.71096021  0.94320382     0.45300
H2064       H  0.08193968  0.75079742  0.57008620     0.36700
C2065       C  0.89773869  0.94374823  0.52345568    -0.27500
C2066       C  0.89659383  0.92586879  0.00565877     0.02100
C2067       C  0.87995603  0.92655499  0.98392067     0.30200
C2068       C  0.86335761  0.94344542  0.98436812    -0.19300
C2069       C  0.86283492  0.95981026  0.00644607    -0.28700
C2070       C  0.88063279  0.96020876  0.52384764     0.44200
C2071       C  0.91487265  0.90865405  0.00471399     0.05400
O2072       O  0.87930380  0.91020980  0.96279527    -0.57200
H2073       H  0.85072409  0.94362430  0.96738457     0.18300
O2074       O  0.88056536  0.97611564  0.54548667    -0.63900
H2075       H  0.91036777  0.94369214  0.54044602     0.16800
C2076       C  0.92934177  0.90694400  0.98056073     0.29000
C2077       C  0.94573301  0.88986322  0.97930510    -0.24800
C2078       C  0.94956655  0.87526708  0.50118242    -0.24100
C2079       C  0.93398371  0.87727943  0.52426361     0.40500
C2080       C  0.91787547  0.89466229  0.52423286    -0.26600
O2081       O  0.92773584  0.92204706  0.95812914    -0.58500
H2082       H  0.95660333  0.88885577  0.96046438     0.16100
O2083       O  0.93401830  0.86211669  0.54673691    -0.59900
H2084       H  0.90585444  0.89578610  0.54189500     0.14600
H2085       H  0.88900646  0.98922515  0.53751024     0.46400
H2086       H  0.93670329  0.93539716  0.96431130     0.41800
H2087       H  0.92447186  0.84931192  0.54009060     0.45300
H2088       H  0.88333089  0.91806558  0.94454316     0.36700
C2089       C  0.06758473  0.90562492  0.52120305    -0.27500
C2090       C  0.08415453  0.90411687  0.00039611     0.02100
C2091       C  0.08217038  0.88811284  0.97795400     0.30200
C2092       C  0.06434730  0.87248303  0.97823419    -0.19300
C2093       C  0.04840807  0.87236488  0.00081951    -0.28700
C2094       C  0.05042496  0.88931866  0.52286852     0.44200
C2095       C  0.10269523  0.92103717  0.00060805     0.05400
O2096       O  0.09821071  0.88692143  0.95650069    -0.57200
H2097       H  0.06321505  0.86015566  0.96091111     0.18300
O2098       O  0.03563909  0.88989003  0.54574113    -0.63900
H2099       H  0.06893888  0.91822407  0.53817400     0.16800
C2100       C  0.10592527  0.93606677  0.97730253     0.29000
C2101       C  0.12331805  0.95214053  0.97828976    -0.24800
C2102       C  0.13645778  0.95539403  0.49847430    -0.24100
C2103       C  0.13299029  0.94073501  0.52222612     0.40500
C2104       C  0.11556350  0.92475567  0.52154549    -0.26600
O2105       O  0.09180591  0.93559685  0.95377288    -0.58500
H2106       H  0.12536695  0.96364764  0.96022847     0.16100
O2107       O  0.14656241  0.94175247  0.54626212    -0.59900
H2108       H  0.11320891  0.91365792  0.53997222     0.14600
H2109       H  0.02259156  0.89898554  0.53889158     0.46400
H2110       H  0.07912497  0.94587356  0.95879889     0.41800
H2111       H  0.15931801  0.93132041  0.54213530     0.45300
H2112       H  0.09033121  0.89141827  0.93845182     0.36700
loop_ 
_geom_bond_atom_site_label_1 
_geom_bond_atom_site_label_2 
_geom_bond_distance 
_geom_bond_site_symmetry_2 
_ccdc_geom_bond_type 
O1           Cu9   2.025       .  S
O1         C1067   1.281       .  A
O2           Cu9   2.024   1_455  S
O2           C12   1.280       .  A
O3           Cu9   1.988       .  S
O3         C1069   1.275       .  A
O4           Cu9   1.987   1_455  S
O4           C14   1.275       .  A
O5          Cu10   2.023   1_455  S
O5         C1070   1.280       .  A
O6          Cu10   2.025       .  S
O6           C13   1.281   1_554  A
O7          Cu10   1.994   1_455  S
O7         C1068   1.276   1_554  A
O8          Cu10   1.993       .  S
O8           C11   1.275       .  A
Cu9       Cu1066   2.369       .  S
Cu10      Cu1065   2.368   1_554  S
C11        O1057   1.282   1_554  A
C11        C1022   1.485       .  S
C12        O1063   1.277       .  A
C12         C989   1.487       .  S
C13        O1059   1.276       .  A
C13         C974   1.488       .  S
C14        O1061   1.281       .  A
C14        C1037   1.479       .  S
O15         Cu23   2.026   1_565  S
O15        C1081   1.280       .  A
O16         Cu23   2.025       .  S
O16          C26   1.281   1_554  A
O17         Cu23   2.006   1_565  S
O17        C1083   1.277       .  A
O18         Cu23   1.998       .  S
O18          C28   1.276   1_554  A
O19         Cu24   2.024       .  S
O19        C1084   1.280       .  A
O20         Cu24   2.030   1_565  S
O20          C27   1.282       .  A
O21         Cu24   2.004       .  S
O21        C1082   1.277       .  A
O22         Cu24   2.000   1_565  S
O22          C25   1.277       .  A
Cu23      Cu1080   2.367   1_554  S
Cu24      Cu1079   2.369       .  S
C25        O1071   1.280       .  A
C25        C1013   1.483       .  S
C26        O1077   1.277       .  A
C26         C917   1.492       .  S
C27        O1073   1.276       .  A
C27         C893   1.490       .  S
C28        O1075   1.280       .  A
C28        C2006   1.482       .  S
O29         Cu37   2.022   1_655  S
O29          C39   1.281       .  A
O30         Cu37   2.021       .  S
O30        C1096   1.280       .  A
O31         Cu37   1.987   1_655  S
O31          C41   1.275       .  A
O32         Cu37   1.991       .  S
O32        C1098   1.275       .  A
O33         Cu38   2.029       .  S
O33          C42   1.281   1_554  A
O34         Cu38   2.025   1_655  S
O34        C1097   1.281   1_554  A
O35         Cu38   2.008       .  S
O35          C40   1.277       .  A
O36         Cu38   2.005   1_655  S
O36        C1095   1.277   1_554  A
Cu37      Cu1094   2.370       .  S
Cu38      Cu1093   2.369   1_554  S
C39        O1092   1.276       .  A
C39         C830   1.485       .  S
C40        O1086   1.280   1_554  A
C40         C878   1.486       .  S
C41        O1090   1.280       .  A
C41         C941   1.478       .  S
C42        O1088   1.276       .  A
C42         C845   1.480       .  S
O43         Cu51   2.023   1_565  S
O43          C53   1.280       .  A
O44         Cu51   2.027       .  S
O44        C1110   1.280       .  A
O45         Cu51   1.997   1_565  S
O45          C55   1.276       .  A
O46         Cu51   2.004       .  S
O46        C1112   1.277       .  A
O47         Cu52   2.019       .  S
O47          C56   1.280       .  A
O48         Cu52   2.023   1_565  S
O48        C1111   1.280       .  A
O49         Cu52   2.004       .  S
O49          C54   1.277       .  A
O50         Cu52   2.007   1_565  S
O50        C1109   1.278       .  A
Cu51      Cu1108   2.368   1_554  S
Cu52      Cu1107   2.369       .  S
C53        O1106   1.277   1_554  A
C53         C773   1.489       .  S
C54        O1100   1.280       .  A
C54         C869   1.485       .  S
C55        O1104   1.280   1_554  A
C55        C1046   1.482       .  S
C56        O1102   1.276       .  A
C56         C797   1.484       .  S
C57          C58   1.540       .  S
C57          C63   1.534       .  S
C57          C61   1.529       .  S
C57         C749   1.529       .  S
C58          H65   1.083       .  S
C58          C59   1.365       .  D
C59        C1116   1.543       .  S
C59         C998   1.479       .  S
C60          C64   1.548       .  S
C60        C1115   1.544   1_554  S
C60        C1118   1.547   1_554  S
C60          H66   1.109       .  S
C61          H67   1.087       .  S
C61          C62   1.366       .  D
C62        C1116   1.545       .  S
C62         C710   1.490       .  S
C63          H68   1.086       .  S
C63        C1120   1.364       .  D
C64        C1119   1.364       .  D
C64         C725   1.489       .  S
C69          C70   1.532       .  S
C69          C75   1.538   1_554  S
C69          C73   1.540       .  S
C69         C686   1.536       .  S
C70          H77   1.087       .  S
C70          C71   1.362   1_554  D
C71        C1128   1.541       .  S
C71         C782   1.479       .  S
C72          C76   1.543       .  S
C72        C1127   1.544       .  S
C72        C1130   1.548       .  S
C72          H78   1.110       .  S
C73          H79   1.078       .  S
C73          C74   1.369       .  D
C74        C1128   1.547   1_554  S
C74         C701   1.497   1_554  S
C75          H80   1.086       .  S
C75        C1132   1.365       .  D
C76        C1131   1.366       .  D
C76         C662   1.486       .  S
N81          C86   1.357       .  A
N81          C85   1.354       .  A
N81         H113   1.035       .  S
N82          C89   1.352       .  A
N82          C90   1.354       .  A
N83          C88   1.355       .  A
N83          C87   1.356       .  A
N83         H114   1.037       .  S
N84          C91   1.353       .  A
N84          C92   1.351       .  A
C85          C93   1.389       .  A
C85         C101   1.421       .  A
C86         C102   1.420       .  A
C86          C94   1.386       .  A
C87          C95   1.387       .  A
C87         C104   1.418       .  A
C88         C103   1.420       .  A
C88          C96   1.388       .  A
C89         C101   1.418       .  A
C89          C97   1.388       .  A
C90         C104   1.415       .  A
C90          C98   1.385       .  A
C91          C99   1.385       .  A
C91         C102   1.413       .  A
C92         C100   1.387       .  A
C92         C103   1.415       .  A
C93          C94   1.374       .  A
C93         H105   1.082       .  S
C94         H106   1.082       .  S
C95          C96   1.374       .  A
C95         H107   1.082       .  S
C96         H108   1.082       .  S
C97          C98   1.372       .  A
C97         H109   1.082       .  S
C98         H110   1.082       .  S
C99         C100   1.372       .  A
C99         H111   1.082       .  S
C100        H112   1.082       .  S
C101        C677   1.487       .  S
C102        C605   1.494       .  S
C103        C638   1.489       .  S
C104        C653   1.492       .  S
C115        C116   1.532       .  S
C115        C121   1.543       .  S
C115        C119   1.528       .  S
C115        C629   1.534       .  S
C116        H123   1.086       .  S
C116        C117   1.365       .  D
C117       C1174   1.547       .  S
C117        C902   1.485       .  S
C118        C122   1.543       .  S
C118       C1173   1.546       .  S
C118       C1176   1.550       .  S
C118        H124   1.110       .  S
C119        H125   1.085       .  S
C119        C120   1.366       .  D
C120       C1174   1.550       .  S
C120        C590   1.496       .  S
C121        H126   1.081       .  S
C121       C1178   1.367       .  D
C122       C1177   1.366       .  D
C122        C614   1.487       .  S
C127        C128   1.542       .  S
C127        C133   1.530   1_554  S
C127        C131   1.530       .  S
C127        C557   1.531       .  S
C128        H135   1.081       .  S
C128        C129   1.365   1_554  D
C129       C1186   1.539       .  S
C129        C965   1.476       .  S
C130        C134   1.545       .  S
C130       C1185   1.540       .  S
C130       C1188   1.548       .  S
C130        H136   1.109       .  S
C131        H137   1.086       .  S
C131        C132   1.368   1_554  D
C132       C1186   1.547       .  S
C132        C581   1.490       .  S
C133        H138   1.087       .  S
C133       C1190   1.364       .  D
C134       C1189   1.364       .  D
C134        C533   1.486       .  S
C139        C140   1.531       .  S
C139        C145   1.533       .  S
C139        C143   1.539       .  S
C139        C509   1.537       .  S
C140        H147   1.086       .  S
C140        C141   1.365       .  D
C141       C1198   1.545       .  S
C141        C806   1.477       .  S
C142        C146   1.554       .  S
C142       C1197   1.546       .  S
C142       C1200   1.548       .  S
C142        H148   1.110       .  S
C143        H149   1.078       .  S
C143        C144   1.366       .  D
C144       C1198   1.546       .  S
C144        C461   1.495       .  S
C145        H150   1.086       .  S
C145       C1202   1.367       .  D
C146       C1201   1.370       .  D
C146        C485   1.500       .  S
C151        C152   1.534       .  S
C151        C157   1.538   1_554  S
C151        C155   1.530       .  S
C151        C437   1.533       .  S
C152        H159   1.086       .  S
C152        C153   1.366   1_554  D
C153       C1210   1.543       .  S
C153        C854   1.481       .  S
C154        C158   1.543       .  S
C154       C1209   1.541       .  S
C154       C1212   1.550       .  S
C154        H160   1.109       .  S
C155        H161   1.085       .  S
C155        C156   1.369   1_554  D
C156       C1210   1.553       .  S
C156        C470   1.503       .  S
C157        H162   1.082       .  S
C157       C1214   1.364       .  D
C158       C1213   1.364       .  D
C158        C422   1.484       .  S
N163        C168   1.352       .  A
N163        C167   1.356       .  A
N163        H195   1.040       .  S
N164        C171   1.355       .  A
N164        C172   1.351       .  A
N165        C170   1.357       .  A
N165        C169   1.352       .  A
N165        H196   1.038       .  S
N166        C173   1.349       .  A
N166        C174   1.352       .  A
C167        C175   1.386       .  A
C167        C183   1.416       .  A
C168        C184   1.415       .  A
C168        C176   1.388       .  A
C169        C177   1.389       .  A
C169        C186   1.418       .  A
C170        C185   1.418       .  A
C170        C178   1.385       .  A
C171        C183   1.414       .  A
C171        C179   1.384       .  A
C172        C186   1.416       .  A
C172        C180   1.389       .  A
C173        C181   1.387       .  A
C173        C184   1.410       .  A
C174        C182   1.385       .  A
C174        C185   1.411       .  A
C175        C176   1.374       .  A
C175        H187   1.082       .  S
C176        H188   1.082       .  S
C177        C178   1.375       .  A
C177        H189   1.082       .  S
C178        H190   1.082       .  S
C179        C180   1.374       .  A
C179        H191   1.082       .  S
C180        H192   1.082       .  S
C181        C182   1.374       .  A
C181        H193   1.082       .  S
C182        H194   1.082       .  S
C183        C734   1.500       .  S
C184        C446   1.478       .  S
C185        C413   1.495       .  S
C186        C758   1.481       .  S
N197        C202   1.357       .  A
N197        C201   1.353       .  A
N197        H229   1.033       .  S
N198        C205   1.353       .  A
N198        C206   1.355       .  A
N199        C204   1.355       .  A
N199        C203   1.357       .  A
N199        H230   1.033       .  S
N200        C207   1.355       .  A
N200        C208   1.351       .  A
C201        C209   1.387       .  A
C201        C217   1.419       .  A
C202        C218   1.420       .  A
C202        C210   1.387       .  A
C203        C211   1.387       .  A
C203        C220   1.421       .  A
C204        C219   1.420       .  A
C204        C212   1.387       .  A
C205        C217   1.419       .  A
C205        C213   1.387       .  A
C206        C220   1.418       .  A
C206        C214   1.385       .  A
C207        C215   1.385       .  A
C207        C218   1.417       .  A
C208        C216   1.387       .  A
C208        C219   1.417       .  A
C209        C210   1.375       .  A
C209        H221   1.083       .  S
C210        H222   1.081       .  S
C211        C212   1.374       .  A
C211        H223   1.081       .  S
C212        H224   1.082       .  S
C213        C214   1.373       .  A
C213        H225   1.082       .  S
C214        H226   1.082       .  S
C215        C216   1.373       .  A
C215        H227   1.082       .  S
C216        H228   1.082       .  S
C217        C389   1.489       .  S
C218        C494   1.498       .  S
C219        C518   1.489       .  S
C220        C365   1.497       .  S
C231        C232   1.528       .  S
C231        C237   1.532       .  S
C231        C235   1.540       .  S
C231        C398   1.535       .  S
C232        H239   1.086       .  S
C232        C233   1.365       .  D
C233       C1290   1.549   1_554  S
C233        C926   1.491   1_554  S
C234        C238   1.546       .  S
C234       C1289   1.541       .  S
C234       C1292   1.546       .  S
C234        H240   1.110       .  S
C235        H241   1.079       .  S
C235        C236   1.369       .  D
C236       C1290   1.553   1_554  S
C236        C341   1.499       .  S
C237        H242   1.086   1_554  S
C237       C1294   1.367   1_554  D
C238       C1293   1.367       .  D
C238        C374   1.492       .  S
C243        C244   1.541       .  S
C243        C249   1.531       .  S
C243        C247   1.532       .  S
C243        C317   1.532       .  S
C244        H251   1.081       .  S
C244        C245   1.363       .  D
C245       C1302   1.541       .  S
C245        C821   1.478       .  S
C246        C250   1.550       .  S
C246       C1301   1.545   1_554  S
C246       C1304   1.550   1_554  S
C246        H252   1.108       .  S
C247        H253   1.086       .  S
C247        C248   1.368       .  D
C248       C1302   1.548       .  S
C248        C350   1.494       .  S
C249        H254   1.086       .  S
C249       C1306   1.366       .  D
C250       C1305   1.365   1_554  D
C250        C293   1.493       .  S
N255        C260   1.353       .  A
N255        C259   1.356       .  A
N255        H287   1.035       .  S
N256        C263   1.354       .  A
N256        C264   1.351       .  A
N257        C262   1.355       .  A
N257        C261   1.351       .  A
N257        H288   1.037       .  S
N258        C265   1.350       .  A
N258        C266   1.353       .  A
C259        C267   1.388       .  A
C259        C275   1.421       .  A
C260        C276   1.418       .  A
C260        C268   1.387       .  A
C261        C269   1.387       .  A
C261        C278   1.415       .  A
C262        C277   1.417       .  A
C262        C270   1.388       .  A
C263        C275   1.417       .  A
C263        C271   1.386       .  A
C264        C278   1.416       .  A
C264        C272   1.387       .  A
C265        C273   1.387       .  A
C265        C276   1.415       .  A
C266        C274   1.385       .  A
C266        C277   1.414       .  A
C267        C268   1.373       .  A
C267        H279   1.081       .  S
C268        H280   1.082       .  S
C269        C270   1.373       .  A
C269        H281   1.082       .  S
C270        H282   1.081       .  S
C271        C272   1.373       .  A
C271        H283   1.082       .  S
C272        H284   1.082       .  S
C273        C274   1.373       .  A
C273        H285   1.082       .  S
C274        H286   1.082       .  S
C275        C542   1.495       .  S
C276        C326   1.481       .  S
C277        C302   1.493       .  S
C278        C566   1.484       .  S
C289        C290   1.409       .  A
C289        C294   1.407       .  A
C289        H299   1.083       .  S
C290        C295   1.497       .  S
C290        C291   1.411       .  A
C291        C292   1.399       .  A
C291        O296   1.372       .  S
C292        C293   1.407       .  A
C292        H297   1.084       .  S
C293        C294   1.408       .  A
C294        O298   1.371       .  S
C295        C300   1.414       .  A
C295        C304   1.408       .  A
O296        H312   0.992       .  S
O298        H309   0.992       .  S
C300        C301   1.403       .  A
C300        O305   1.371       .  S
C301        C302   1.403       .  A
C301        H306   1.084       .  S
C302        C303   1.407       .  A
C303        C304   1.402       .  A
C303        O307   1.372       .  S
C304        H308   1.083       .  S
O305        H310   0.992       .  S
O307        H311   0.992       .  S
C313        C314   1.399       .  A
C313        C318   1.399       .  A
C313        H323   1.084       .  S
C314        C319   1.478       .  S
C314        C315   1.404       .  A
C315        C316   1.397       .  A
C315        O320   1.372       .  S
C316        C317   1.411       .  A
C316        H321   1.075       .  S
C317        C318   1.418       .  A
C318        O322   1.373       .  S
C319        C324   1.408       .  A
C319        C328   1.404       .  A
O320        H336   0.992       .  S
O322        H333   0.992       .  S
C324        C325   1.400       .  A
C324        O329   1.372       .  S
C325        C326   1.402       .  A
C325        H330   1.084       .  S
C326        C327   1.405       .  A
C327        C328   1.397       .  A
C327        O331   1.371       .  S
C328        H332   1.084       .  S
O329        H334   0.992       .  S
O331        H335   0.992       .  S
C337        C342   1.400       .  A
C337       C1394   1.403       .  A
C337        H347   1.083       .  S
C338        C343   1.493       .  S
C338        C339   1.413       .  A
C338       C1393   1.403       .  A
C339        C340   1.406       .  A
C339        O344   1.371       .  S
C340       C1397   1.405       .  A
C340        H345   1.082       .  S
C341        C342   1.416       .  A
C341       C1396   1.404   1_554  A
C342        O346   1.372       .  S
C343        C348   1.411       .  A
C343       C1408   1.406       .  A
O344        H360   0.992       .  S
O346        H357   0.992       .  S
C348        C349   1.398       .  A
C348        O353   1.372       .  S
C349        C350   1.406       .  A
C349        H354   1.083       .  S
C350       C1407   1.412       .  A
C351        C352   1.405       .  A
C351       C1406   1.412       .  A
C351        O355   1.370       .  S
C352       C1399   1.407       .  A
C352        H356   1.083       .  S
O353        H358   0.992       .  S
O355        H359   0.992       .  S
C361        C362   1.406       .  A
C361        C366   1.403       .  A
C361        H371   1.083       .  S
C362        C367   1.494       .  S
C362        C363   1.412       .  A
C363        C364   1.405       .  A
C363        O368   1.372       .  S
C364        C365   1.404       .  A
C364        H369   1.084       .  S
C365        C366   1.408       .  A
C366        O370   1.371       .  S
C367        C372   1.412       .  A
C367        C376   1.404       .  A
O368        H384   0.992       .  S
O370        H381   0.992       .  S
C372        C373   1.405       .  A
C372        O377   1.371       .  S
C373        C374   1.405       .  A
C373        H378   1.083       .  S
C374        C375   1.412       .  A
C375        C376   1.401       .  A
C375        O379   1.372       .  S
C376        H380   1.084       .  S
O377        H382   0.992       .  S
O379        H383   0.992       .  S
C385        C386   1.404       .  A
C385        C390   1.402       .  A
C385        H395   1.084       .  S
C386        C391   1.478       .  S
C386        C387   1.406       .  A
C387        C388   1.398       .  A
C387        O392   1.372       .  S
C388        C389   1.403       .  A
C388        H393   1.084       .  S
C389        C390   1.409       .  A
C390        O394   1.371       .  S
C391        C396   1.403       .  A
C391        C400   1.398       .  A
O392        H408   0.992       .  S
O394        H405   0.992       .  S
C396        C397   1.400       .  A
C396        O401   1.373       .  S
C397        C398   1.412       .  A
C397        H402   1.076       .  S
C398        C399   1.419       .  A
C399        C400   1.401       .  A
C399        O403   1.373       .  S
C400        H404   1.084       .  S
O401        H406   0.992       .  S
O403        H407   0.992       .  S
C409        C410   1.404       .  A
C409        C414   1.404       .  A
C409        H419   1.083       .  S
C410        C415   1.487       .  S
C410        C411   1.410       .  A
C411        C412   1.402       .  A
C411        O416   1.372       .  S
C412        C413   1.403       .  A
C412        H417   1.083       .  S
C413        C414   1.411       .  A
C414        O418   1.371       .  S
C415        C420   1.408       .  A
C415        C424   1.407       .  A
O416        H432   0.992       .  S
O418        H429   0.992       .  S
C420        C421   1.400       .  A
C420        O425   1.372       .  S
C421        C422   1.405       .  A
C421        H426   1.084       .  S
C422        C423   1.406       .  A
C423        C424   1.405       .  A
C423        O427   1.371       .  S
C424        H428   1.083       .  S
O425        H430   0.992       .  S
O427        H431   0.992       .  S
C433        C434   1.398       .  A
C433        C438   1.399       .  A
C433        H443   1.084       .  S
C434        C439   1.478       .  S
C434        C435   1.404       .  A
C435        C436   1.398       .  A
C435        O440   1.372       .  S
C436        C437   1.412       .  A
C436        H441   1.076       .  S
C437        C438   1.418       .  A
C438        O442   1.372       .  S
C439        C444   1.408       .  A
C439        C448   1.404       .  A
O440        H456   0.992       .  S
O442        H453   0.992       .  S
C444        C445   1.398       .  A
C444        O449   1.372       .  S
C445        C446   1.401       .  A
C445        H450   1.084       .  S
C446        C447   1.405       .  A
C447        C448   1.398       .  A
C447        O451   1.371       .  S
C448        H452   1.084       .  S
O449        H454   0.992       .  S
O451        H455   0.992       .  S
C457        C462   1.394       .  A
C457       C1514   1.403       .  A
C457        H467   1.083       .  S
C458        C463   1.499       .  S
C458        C459   1.415       .  A
C458       C1513   1.404   1_554  A
C459        C460   1.409       .  A
C459        O464   1.371       .  S
C460       C1517   1.405       .  A
C460        H465   1.082       .  S
C461        C462   1.412       .  A
C461       C1516   1.405       .  A
C462        O466   1.372       .  S
C463        C468   1.410       .  A
C463       C1528   1.408   1_554  A
O464        H480   0.992       .  S
O466        H477   0.992       .  S
C468        C469   1.398       .  A
C468        O473   1.372       .  S
C469        C470   1.409   1_554  A
C469        H474   1.082       .  S
C470       C1527   1.414       .  A
C471        C472   1.407       .  A
C471       C1526   1.413       .  A
C471        O475   1.370       .  S
C472       C1519   1.408       .  A
C472        H476   1.083       .  S
O473        H478   0.992       .  S
O475        H479   0.991       .  S
C481        C482   1.409       .  A
C481        C486   1.410       .  A
C481        H491   1.083       .  S
C482        C487   1.498       .  S
C482        C483   1.410       .  A
C483        C484   1.401       .  A
C483        O488   1.373       .  S
C484        C485   1.407       .  A
C484        H489   1.083       .  S
C485        C486   1.411       .  A
C486        O490   1.371       .  S
C487        C492   1.413       .  A
C487        C496   1.408       .  A
O488        H504   0.992       .  S
O490        H501   0.991       .  S
C492        C493   1.403       .  A
C492        O497   1.371       .  S
C493        C494   1.403       .  A
C493        H498   1.084       .  S
C494        C495   1.409       .  A
C495        C496   1.406       .  A
C495        O499   1.371       .  S
C496        H500   1.083       .  S
O497        H502   0.992       .  S
O499        H503   0.992       .  S
C505        C506   1.400       .  A
C505        C510   1.403       .  A
C505        H515   1.084       .  S
C506        C511   1.480       .  S
C506        C507   1.403       .  A
C507        C508   1.398       .  A
C507        O512   1.373       .  S
C508        C509   1.413       .  A
C508        H513   1.074       .  S
C509        C510   1.418       .  A
C510        O514   1.372       .  S
C511        C516   1.409       .  A
C511        C520   1.403       .  A
O512        H528   0.992       .  S
O514        H525   0.992       .  S
C516        C517   1.399       .  A
C516        O521   1.372       .  S
C517        C518   1.403       .  A
C517        H522   1.084       .  S
C518        C519   1.408       .  A
C519        C520   1.400       .  A
C519        O523   1.371       .  S
C520        H524   1.084       .  S
O521        H526   0.992       .  S
O523        H527   0.992       .  S
C529        C530   1.404       .  A
C529        C534   1.397       .  A
C529        H539   1.083       .  S
C530        C535   1.494       .  S
C530        C531   1.414       .  A
C531        C532   1.407       .  A
C531        O536   1.371       .  S
C532        C533   1.403       .  A
C532        H537   1.084       .  S
C533        C534   1.410       .  A
C534        O538   1.372       .  S
C535        C540   1.412       .  A
C535        C544   1.407       .  A
O536        H552   0.992       .  S
O538        H549   0.992       .  S
C540        C541   1.404       .  A
C540        O545   1.373       .  S
C541        C542   1.403       .  A
C541        H546   1.084       .  S
C542        C543   1.409       .  A
C543        C544   1.402       .  A
C543        O547   1.371       .  S
C544        H548   1.083       .  S
O545        H550   0.992       .  S
O547        H551   0.991       .  S
C553        C554   1.399       .  A
C553        C558   1.399       .  A
C553        H563   1.084       .  S
C554        C559   1.478       .  S
C554        C555   1.405       .  A
C555        C556   1.397       .  A
C555        O560   1.372       .  S
C556        C557   1.411       .  A
C556        H561   1.076       .  S
C557        C558   1.418       .  A
C558        O562   1.373       .  S
C559        C564   1.408       .  A
C559        C568   1.403       .  A
O560        H576   0.992       .  S
O562        H573   0.992       .  S
C564        C565   1.400       .  A
C564        O569   1.372       .  S
C565        C566   1.402       .  A
C565        H570   1.083       .  S
C566        C567   1.407       .  A
C567        C568   1.396       .  A
C567        O571   1.372       .  S
C568        H572   1.084       .  S
O569        H574   0.992       .  S
O571        H575   0.992       .  S
C577        C582   1.406       .  A
C577       C1634   1.407       .  A
C577        H587   1.083       .  S
C578        C583   1.491       .  S
C578        C579   1.410       .  A
C578       C1633   1.407       .  A
C579        C580   1.395       .  A
C579        O584   1.372   1_556  S
C580        C581   1.405       .  A
C580        H585   1.084   1_556  S
C581       C1638   1.411       .  A
C582       C1637   1.412       .  A
C582        O586   1.371       .  S
C583        C588   1.412   1_556  A
C583       C1648   1.401       .  A
O584        H600   0.992       .  S
O586        H597   0.991       .  S
C588        C589   1.406       .  A
C588        O593   1.372       .  S
C589       C1646   1.406       .  A
C589        H594   1.080       .  S
C590        C591   1.415       .  A
C590       C1645   1.404       .  A
C591        C592   1.395       .  A
C591        O595   1.372       .  S
C592       C1639   1.402       .  A
C592        H596   1.083       .  S
O593        H598   0.992       .  S
O595        H599   0.992       .  S
C601        C602   1.406       .  A
C601        C606   1.404       .  A
C601        H611   1.083       .  S
C602        C607   1.491       .  S
C602        C603   1.412       .  A
C603        C604   1.404       .  A
C603        O608   1.372       .  S
C604        C605   1.402       .  A
C604        H609   1.083       .  S
C605        C606   1.409       .  A
C606        O610   1.372       .  S
C607        C612   1.412       .  A
C607        C616   1.404       .  A
O608        H624   0.992       .  S
O610        H621   0.992       .  S
C612        C613   1.406       .  A
C612        O617   1.371       .  S
C613        C614   1.403       .  A
C613        H618   1.084       .  S
C614        C615   1.410       .  A
C615        C616   1.400       .  A
C615        O619   1.372       .  S
C616        H620   1.084       .  S
O617        H622   0.992       .  S
O619        H623   0.992       .  S
C625        C626   1.398       .  A
C625        C630   1.400       .  A
C625        H635   1.084       .  S
C626        C631   1.479       .  S
C626        C627   1.404       .  A
C627        C628   1.400       .  A
C627        O632   1.372       .  S
C628        C629   1.412       .  A
C628        H633   1.076       .  S
C629        C630   1.419       .  A
C630        O634   1.373       .  S
C631        C636   1.408       .  A
C631        C640   1.403       .  A
O632        H648   0.992       .  S
O634        H645   0.992       .  S
C636        C637   1.399       .  A
C636        O641   1.371       .  S
C637        C638   1.403       .  A
C637        H642   1.083       .  S
C638        C639   1.409       .  A
C639        C640   1.401       .  A
C639        O643   1.372       .  S
C640        H644   1.084       .  S
O641        H646   0.992       .  S
O643        H647   0.992       .  S
C649        C650   1.407       .  A
C649        C654   1.401       .  A
C649        H659   1.083       .  S
C650        C655   1.493       .  S
C650        C651   1.413       .  A
C651        C652   1.405       .  A
C651        O656   1.372       .  S
C652        C653   1.402       .  A
C652        H657   1.084       .  S
C653        C654   1.406       .  A
C654        O658   1.371       .  S
C655        C660   1.413       .  A
C655        C664   1.405       .  A
O656        H672   0.992       .  S
O658        H669   0.992       .  S
C660        C661   1.406       .  A
C660        O665   1.371       .  S
C661        C662   1.404       .  A
C661        H666   1.084       .  S
C662        C663   1.409       .  A
C663        C664   1.398       .  A
C663        O667   1.372       .  S
C664        H668   1.084       .  S
O665        H670   0.992       .  S
O667        H671   0.992       .  S
C673        C674   1.404       .  A
C673        C678   1.399       .  A
C673        H683   1.084       .  S
C674        C679   1.482       .  S
C674        C675   1.409       .  A
C675        C676   1.402       .  A
C675        O680   1.373       .  S
C676        C677   1.403       .  A
C676        H681   1.084       .  S
C677        C678   1.406       .  A
C678        O682   1.371       .  S
C679        C684   1.404       .  A
C679        C688   1.401       .  A
O680        H696   0.992       .  S
O682        H693   0.992       .  S
C684        C685   1.400       .  A
C684        O689   1.373       .  S
C685        C686   1.413       .  A
C685        H690   1.077       .  S
C686        C687   1.417       .  A
C687        C688   1.400       .  A
C687        O691   1.372       .  S
C688        H692   1.084       .  S
O689        H694   0.992       .  S
O691        H695   0.992       .  S
C697        C702   1.395       .  A
C697       C1754   1.401   1_554  A
C697        H707   1.083       .  S
C698        C703   1.490       .  S
C698        C699   1.412       .  A
C698       C1753   1.401       .  A
C699        C700   1.405       .  A
C699        O704   1.371       .  S
C700       C1757   1.406       .  A
C700        H705   1.080       .  S
C701        C702   1.416   1_556  A
C701       C1756   1.406       .  A
C702        O706   1.372       .  S
C703        C708   1.410       .  A
C703       C1768   1.406       .  A
O704        H720   0.992       .  S
O706        H717   0.992   1_554  S
C708        C709   1.396       .  A
C708        O713   1.372       .  S
C709        C710   1.405       .  A
C709        H714   1.083       .  S
C710       C1767   1.410       .  A
C711        C712   1.406       .  A
C711       C1766   1.413   1_554  A
C711        O715   1.371       .  S
C712       C1759   1.406   1_554  A
C712        H716   1.083       .  S
O713        H718   0.992       .  S
O715        H719   0.991       .  S
C721        C722   1.405       .  A
C721        C726   1.402       .  A
C721        H731   1.083       .  S
C722        C727   1.495       .  S
C722        C723   1.413       .  A
C723        C724   1.408       .  A
C723        O728   1.371       .  S
C724        C725   1.404       .  A
C724        H729   1.084       .  S
C725        C726   1.410       .  A
C726        O730   1.372       .  S
C727        C732   1.411       .  A
C727        C736   1.406       .  A
O728        H744   0.992       .  S
O730        H741   0.992       .  S
C732        C733   1.406       .  A
C732        O737   1.372       .  S
C733        C734   1.405       .  A
C733        H738   1.083       .  S
C734        C735   1.410       .  A
C735        C736   1.405       .  A
C735        O739   1.372       .  S
C736        H740   1.083       .  S
O737        H742   0.992       .  S
O739        H743   0.992       .  S
C745        C746   1.400       .  A
C745        C750   1.398       .  A
C745        H755   1.083       .  S
C746        C751   1.482       .  S
C746        C747   1.406       .  A
C747        C748   1.398       .  A
C747        O752   1.372       .  S
C748        C749   1.411       .  A
C748        H753   1.078       .  S
C749        C750   1.417       .  A
C750        O754   1.373       .  S
C751        C756   1.411       .  A
C751        C760   1.405       .  A
O752        H768   0.992       .  S
O754        H765   0.992       .  S
C756        C757   1.397       .  A
C756        O761   1.372       .  S
C757        C758   1.401       .  A
C757        H762   1.084       .  S
C758        C759   1.406       .  A
C759        C760   1.397       .  A
C759        O763   1.371       .  S
C760        H764   1.083       .  S
O761        H766   0.992       .  S
O763        H767   0.992       .  S
C769        C774   1.401       .  A
C769       C1826   1.403   1_554  A
C769        H779   1.084       .  S
C770        C775   1.481       .  S
C770        C771   1.406       .  A
C770       C1825   1.402       .  A
C771        C772   1.403       .  A
C771        O776   1.372       .  S
C772       C1829   1.408       .  A
C772        H777   1.083       .  S
C773        C774   1.413       .  A
C773       C1828   1.409   1_554  A
C774        O778   1.371       .  S
C775        C780   1.409       .  A
C775       C1840   1.403       .  A
O776        H792   0.992       .  S
O778        H789   0.992       .  S
C780        C781   1.402       .  A
C780        O785   1.371       .  S
C781       C1838   1.404       .  A
C781        H786   1.084       .  S
C782        C783   1.406   1_556  A
C782       C1837   1.403       .  A
C783        C784   1.400       .  A
C783        O787   1.370       .  S
C784       C1831   1.404   1_554  A
C784        H788   1.084       .  S
O785        H790   0.992       .  S
O787        H791   0.992       .  S
C793        C798   1.400       .  A
C793       C1850   1.400       .  A
C793        H803   1.084       .  S
C794        C799   1.482       .  S
C794        C795   1.408       .  A
C794       C1849   1.401       .  A
C795        C796   1.401       .  A
C795        O800   1.373       .  S
C796        C797   1.405       .  A
C796        H801   1.083       .  S
C797       C1854   1.414       .  A
C798       C1853   1.415       .  A
C798        O802   1.371       .  S
C799        C804   1.409       .  A
C799       C1864   1.403       .  A
O800        H816   0.992       .  S
O802        H813   0.992       .  S
C804        C805   1.400       .  A
C804        O809   1.371       .  S
C805        C806   1.400       .  A
C805        H810   1.081       .  S
C806       C1863   1.408       .  A
C807        C808   1.401       .  A
C807       C1862   1.407       .  A
C807        O811   1.372       .  S
C808       C1855   1.403       .  A
C808        H812   1.084       .  S
O809        H814   0.992       .  S
O811        H815   0.992       .  S
C817        C822   1.405       .  A
C817       C1874   1.408   1_554  A
C817        H827   1.083       .  S
C818        C823   1.486       .  S
C818        C819   1.409       .  A
C818       C1873   1.407       .  A
C819        C820   1.400       .  A
C819        O824   1.373       .  S
C820        C821   1.403       .  A
C820        H825   1.084       .  S
C821       C1878   1.404       .  A
C822       C1877   1.406   1_554  A
C822        O826   1.371       .  S
C823        C828   1.410       .  A
C823       C1888   1.402       .  A
O824        H840   0.992       .  S
O826        H837   0.992       .  S
C828        C829   1.401       .  A
C828        O833   1.371       .  S
C829        C830   1.405       .  A
C829        H834   1.083       .  S
C830       C1887   1.414       .  A
C831        C832   1.401       .  A
C831       C1886   1.413   1_554  A
C831        O835   1.372       .  S
C832       C1879   1.402   1_554  A
C832        H836   1.084       .  S
O833        H838   0.992       .  S
O835        H839   0.992       .  S
C841        C846   1.402       .  A
C841       C1898   1.406   1_554  A
C841        H851   1.084       .  S
C842        C847   1.480       .  S
C842        C843   1.406       .  A
C842       C1897   1.405       .  A
C843        C844   1.400       .  A
C843        O848   1.372       .  S
C844       C1901   1.405       .  A
C844        H849   1.084       .  S
C845        C846   1.407   1_556  A
C845       C1900   1.406       .  A
C846        O850   1.371       .  S
C847        C852   1.411       .  A
C847       C1912   1.402       .  A
O848        H864   0.992       .  S
O850        H861   0.992       .  S
C852        C853   1.402       .  A
C852        O857   1.371       .  S
C853       C1910   1.401       .  A
C853        H858   1.084       .  S
C854        C855   1.409   1_556  A
C854       C1909   1.402       .  A
C855        C856   1.396       .  A
C855        O859   1.372       .  S
C856       C1903   1.402   1_554  A
C856        H860   1.084       .  S
O857        H862   0.992       .  S
O859        H863   0.992       .  S
C865        C870   1.404       .  A
C865       C1922   1.405       .  A
C865        H875   1.084       .  S
C866        C871   1.484       .  S
C866        C867   1.407       .  A
C866       C1921   1.404       .  A
C867        C868   1.401       .  A
C867        O872   1.373       .  S
C868        C869   1.406       .  A
C868        H873   1.083       .  S
C869       C1926   1.412       .  A
C870       C1925   1.412       .  A
C870        O874   1.371       .  S
C871        C876   1.409       .  A
C871       C1936   1.402       .  A
O872        H888   0.992       .  S
O874        H885   0.992       .  S
C876        C877   1.401       .  A
C876        O881   1.371       .  S
C877       C1934   1.404       .  A
C877        H882   1.083       .  S
C878        C879   1.413       .  A
C878       C1933   1.405   1_554  A
C879        C880   1.402       .  A
C879        O883   1.372       .  S
C880       C1927   1.403       .  A
C880        H884   1.084       .  S
O881        H886   0.992       .  S
O883        H887   0.992       .  S
C889        C894   1.402       .  A
C889       C1946   1.399       .  A
C889        H899   1.084       .  S
C890        C895   1.477       .  S
C890        C891   1.406       .  A
C890       C1945   1.398       .  A
C891        C892   1.402       .  A
C891        O896   1.371       .  S
C892        C893   1.407       .  A
C892        H897   1.083       .  S
C893       C1950   1.418       .  A
C894       C1949   1.417       .  A
C894        O898   1.371       .  S
C895        C900   1.406       .  A
C895       C1960   1.401       .  A
O896        H912   0.992       .  S
O898        H909   0.992       .  S
C900        C901   1.401       .  A
C900        O905   1.371       .  S
C901        C902   1.402       .  A
C901        H906   1.078       .  S
C902       C1959   1.412       .  A
C903        C904   1.401       .  A
C903       C1958   1.411       .  A
C903        O907   1.372       .  S
C904       C1951   1.401       .  A
C904        H908   1.084       .  S
O905        H910   0.992       .  S
O907        H911   0.992       .  S
C913        C918   1.401       .  A
C913       C1970   1.400       .  A
C913        H923   1.084       .  S
C914        C919   1.481       .  S
C914        C915   1.407   1_556  A
C914       C1969   1.399       .  A
C915        C916   1.401       .  A
C915        O920   1.372       .  S
C916        C917   1.407   1_554  A
C916        H921   1.083       .  S
C917       C1974   1.418       .  A
C918       C1973   1.414       .  A
C918        O922   1.372       .  S
C919        C924   1.408       .  A
C919       C1984   1.399       .  A
O920        H936   0.992       .  S
O922        H933   0.992       .  S
C924        C925   1.405       .  A
C924        O929   1.371       .  S
C925        C926   1.404       .  A
C925        H930   1.079       .  S
C926       C1983   1.415       .  A
C927        C928   1.400       .  A
C927       C1982   1.408       .  A
C927        O931   1.372       .  S
C928       C1975   1.402       .  A
C928        H932   1.084       .  S
O929        H934   0.992       .  S
O931        H935   0.992       .  S
C937        C942   1.397       .  A
C937       C1994   1.399       .  A
C937        H947   1.084       .  S
C938        C943   1.485       .  S
C938        C939   1.410   1_556  A
C938       C1993   1.401       .  A
C939        C940   1.403       .  A
C939        O944   1.373       .  S
C940       C1997   1.405   1_554  A
C940        H945   1.083       .  S
C941        C942   1.413       .  A
C941       C1996   1.404       .  A
C942        O946   1.372       .  S
C943        C948   1.408   1_556  A
C943       C2008   1.405       .  A
O944        H960   0.992       .  S
O946        H957   0.992       .  S
C948        C949   1.399       .  A
C948        O953   1.372       .  S
C949       C2006   1.406   1_554  A
C949        H954   1.084       .  S
C950       C1084   1.478       .  S
C950        C951   1.410       .  A
C950       C2005   1.406       .  A
C951        C952   1.401       .  A
C951        O955   1.371       .  S
C952       C1999   1.404       .  A
C952        H956   1.084       .  S
O953        H958   0.992       .  S
O955        H959   0.992       .  S
C961        C966   1.397       .  A
C961       C2018   1.404   1_554  A
C961        H971   1.084       .  S
C962        C967   1.485       .  S
C962        C963   1.413       .  A
C962       C2017   1.403       .  A
C963        C964   1.404       .  A
C963        O968   1.372       .  S
C964       C2021   1.400       .  A
C964        H969   1.084       .  S
C965        C966   1.405   1_556  A
C965       C2020   1.401       .  A
C966        O970   1.372       .  S
C967        C972   1.406       .  A
C967       C2032   1.407       .  A
O968        H984   0.992       .  S
O970        H981   0.992       .  S
C972        C973   1.397       .  A
C972        O977   1.371       .  S
C973       C2030   1.408       .  A
C973        H978   1.083       .  S
C974        C975   1.411   1_556  A
C974       C2029   1.409       .  A
C975        C976   1.401       .  A
C975        O979   1.371       .  S
C976       C2023   1.406   1_554  A
C976        H980   1.084       .  S
O977        H982   0.992       .  S
O979        H983   0.992       .  S
C985        C990   1.401       .  A
C985       C2042   1.406       .  A
C985        H995   1.084       .  S
C986        C991   1.485   1_556  S
C986        C987   1.405   1_556  A
C986       C2041   1.406       .  A
C987        C988   1.399       .  A
C987        O992   1.373       .  S
C988       C2045   1.408   1_554  A
C988        H993   1.083       .  S
C989        C990   1.410       .  A
C989       C2044   1.408       .  A
C990        O994   1.371       .  S
C991        C996   1.413       .  A
C991       C2056   1.403   1_554  A
O992       H1008   0.992       .  S
O994       H1005   0.992       .  S
C996        C997   1.403       .  A
C996       O1001   1.371       .  S
C997       C2054   1.400       .  A
C997       H1002   1.084       .  S
C998        C999   1.407       .  A
C998       C2053   1.401       .  A
C999       C1000   1.398       .  A
C999       O1003   1.372       .  S
C1000      C2047   1.404       .  A
C1000      H1004   1.084       .  S
O1001      H1006   0.992       .  S
O1003      H1007   0.992       .  S
C1009      C1014   1.404       .  A
C1009      C2066   1.405       .  A
C1009      H1019   1.084       .  S
C1010      C1015   1.482       .  S
C1010      C1011   1.406       .  A
C1010      C2065   1.404       .  A
C1011      C1012   1.400       .  A
C1011      O1016   1.372       .  S
C1012      C1013   1.406       .  A
C1012      H1017   1.084       .  S
C1013      C2070   1.411       .  A
C1014      C2069   1.411       .  A
C1014      O1018   1.371       .  S
C1015      C1020   1.409       .  A
C1015      C2080   1.401       .  A
O1016      H1032   0.992       .  S
O1018      H1029   0.992       .  S
C1020      C1021   1.401       .  A
C1020      O1025   1.371       .  S
C1021      C2078   1.405       .  A
C1021      H1026   1.083       .  S
C1022      C1023   1.416       .  A
C1022      C2077   1.404   1_554  A
C1023      C1024   1.401       .  A
C1023      O1027   1.372       .  S
C1024      C2071   1.402       .  A
C1024      H1028   1.084       .  S
O1025      H1030   0.992       .  S
O1027      H1031   0.992       .  S
C1033      C1038   1.400       .  A
C1033      C2090   1.405       .  A
C1033      H1043   1.084       .  S
C1034      C1039   1.483       .  S
C1034      C1035   1.407       .  A
C1034      C2089   1.406       .  A
C1035      C1036   1.400       .  A
C1035      O1040   1.373       .  S
C1036      C1037   1.406       .  A
C1036      H1041   1.084       .  S
C1037      C2094   1.408       .  A
C1038      C2093   1.408       .  A
C1038      O1042   1.371       .  S
C1039      C1044   1.410       .  A
C1039      C2104   1.401       .  A
O1040      H1056   0.992       .  S
O1042      H1053   0.992       .  S
C1044      C1045   1.401       .  A
C1044      O1049   1.371       .  S
C1045      C2102   1.405       .  A
C1045      H1050   1.083       .  S
C1046      C1047   1.413       .  A
C1046      C2101   1.405   1_554  A
C1047      C1048   1.399       .  A
C1047      O1051   1.372       .  S
C1048      C2095   1.402       .  A
C1048      H1052   1.084       .  S
O1049      H1054   0.992       .  S
O1051      H1055   0.992       .  S
O1057     Cu1065   2.029       .  S
O1058     Cu1065   2.027   1_455  S
O1058      C1068   1.281       .  A
O1059     Cu1065   1.996       .  S
O1060     Cu1065   1.992   1_455  S
O1060      C1070   1.275   1_556  A
O1061     Cu1066   2.027   1_455  S
O1062     Cu1066   2.028       .  S
O1062      C1069   1.281       .  A
O1063     Cu1066   2.003   1_455  S
O1064     Cu1066   1.998       .  S
O1064      C1067   1.276       .  A
C1067      C2078   1.483       .  S
C1068      C2045   1.486       .  S
C1069      C2030   1.485       .  S
C1070      C2093   1.478       .  S
O1071     Cu1079   2.022   1_565  S
O1072     Cu1079   2.019       .  S
O1072      C1082   1.280       .  A
O1073     Cu1079   1.995   1_565  S
O1074     Cu1079   1.986       .  S
O1074      C1084   1.275       .  A
O1075     Cu1080   2.024       .  S
O1076     Cu1080   2.025   1_565  S
O1076      C1083   1.281   1_556  A
O1077     Cu1080   2.005       .  S
O1078     Cu1080   1.997   1_565  S
O1078      C1081   1.277   1_556  A
C1081      C2069   1.482       .  S
C1082      C1973   1.483       .  S
C1083      C1949   1.493       .  S
O1085     Cu1093   2.029   1_655  S
O1085      C1095   1.281       .  A
O1086     Cu1093   2.024       .  S
O1087     Cu1093   1.993   1_655  S
O1087      C1097   1.276       .  A
O1088     Cu1093   1.997       .  S
O1089     Cu1094   2.020       .  S
O1089      C1098   1.280       .  A
O1090     Cu1094   2.024   1_655  S
O1091     Cu1094   2.004       .  S
O1091      C1096   1.277       .  A
O1092     Cu1094   1.999   1_655  S
C1095      C1886   1.485       .  S
C1096      C1934   1.483       .  S
C1097      C1997   1.484       .  S
C1098      C1901   1.475       .  S
O1099     Cu1107   2.013   1_565  S
O1099      C1109   1.279       .  A
O1100     Cu1107   2.021       .  S
O1101     Cu1107   1.991   1_565  S
O1101      C1111   1.275       .  A
O1102     Cu1107   1.998       .  S
O1103     Cu1108   2.019       .  S
O1103      C1112   1.280   1_556  A
O1104     Cu1108   2.018   1_565  S
O1105     Cu1108   2.003       .  S
O1105      C1110   1.277   1_556  A
O1106     Cu1108   2.006   1_565  S
C1109      C1829   1.486       .  S
C1110      C1925   1.487       .  S
C1111      C2102   1.482       .  S
C1112      C1853   1.489       .  S
C1113      C1114   1.538       .  S
C1113      C1119   1.535   1_556  S
C1113      C1117   1.530       .  S
C1113      C1805   1.530       .  S
C1114      H1121   1.082       .  S
C1114      C1115   1.363       .  D
C1115      C2054   1.476   1_556  S
C1116      C1120   1.545       .  S
C1116      H1122   1.110       .  S
C1117      H1123   1.086       .  S
C1117      C1118   1.368       .  D
C1118      C1766   1.495       .  S
C1119      H1124   1.086       .  S
C1120      C1781   1.483       .  S
C1125      C1126   1.531       .  S
C1125      C1131   1.536       .  S
C1125      C1129   1.539       .  S
C1125      C1742   1.535       .  S
C1126      H1133   1.087       .  S
C1126      C1127   1.363       .  D
C1127      C1838   1.479       .  S
C1128      C1132   1.540       .  S
C1128      H1134   1.110       .  S
C1129      H1135   1.078       .  S
C1129      C1130   1.369       .  D
C1130      C1757   1.497       .  S
C1131      H1136   1.086       .  S
C1132      C1718   1.480       .  S
N1137      C1142   1.356       .  A
N1137      C1141   1.354       .  A
N1137      H1169   1.037       .  S
N1138      C1145   1.351       .  A
N1138      C1146   1.353       .  A
N1139      C1144   1.355       .  A
N1139      C1143   1.355       .  A
N1139      H1170   1.039       .  S
N1140      C1147   1.352       .  A
N1140      C1148   1.351       .  A
C1141      C1149   1.388       .  A
C1141      C1157   1.419       .  A
C1142      C1158   1.418       .  A
C1142      C1150   1.386       .  A
C1143      C1151   1.387       .  A
C1143      C1160   1.417       .  A
C1144      C1159   1.416       .  A
C1144      C1152   1.387       .  A
C1145      C1157   1.416       .  A
C1145      C1153   1.388       .  A
C1146      C1160   1.414       .  A
C1146      C1154   1.385       .  A
C1147      C1155   1.385       .  A
C1147      C1158   1.412       .  A
C1148      C1156   1.386       .  A
C1148      C1159   1.413       .  A
C1149      C1150   1.374       .  A
C1149      H1161   1.082       .  S
C1150      H1162   1.082       .  S
C1151      C1152   1.373       .  A
C1151      H1163   1.082       .  S
C1152      H1164   1.082       .  S
C1153      C1154   1.373       .  A
C1153      H1165   1.082       .  S
C1154      H1166   1.082       .  S
C1155      C1156   1.372       .  A
C1155      H1167   1.082       .  S
C1156      H1168   1.082       .  S
C1157      C1733   1.485       .  S
C1158      C1661   1.490       .  S
C1159      C1694   1.488       .  S
C1160      C1709   1.493       .  S
C1171      C1172   1.532       .  S
C1171      C1177   1.543   1_556  S
C1171      C1175   1.530       .  S
C1171      C1685   1.537       .  S
C1172      H1179   1.086       .  S
C1172      C1173   1.365   1_556  D
C1173      C1958   1.485       .  S
C1174      C1178   1.543       .  S
C1174      H1180   1.110       .  S
C1175      H1181   1.084       .  S
C1175      C1176   1.368   1_556  D
C1176      C1646   1.497       .  S
C1177      H1182   1.081       .  S
C1178      C1670   1.484       .  S
C1183      C1184   1.539       .  S
C1183      C1189   1.530       .  S
C1183      C1187   1.531       .  S
C1183      C1613   1.530       .  S
C1184      H1191   1.081       .  S
C1184      C1185   1.362       .  D
C1185      C2021   1.474       .  S
C1186      C1190   1.543       .  S
C1186      H1192   1.110       .  S
C1187      H1193   1.086       .  S
C1187      C1188   1.369       .  D
C1188      C1637   1.493       .  S
C1189      H1194   1.087       .  S
C1190      C1589   1.483       .  S
C1195      C1196   1.527       .  S
C1195      C1201   1.534   1_556  S
C1195      C1199   1.541       .  S
C1195      C1565   1.536       .  S
C1196      H1203   1.087       .  S
C1196      C1197   1.361   1_556  D
C1197      C1862   1.476       .  S
C1198      C1202   1.549       .  S
C1198      H1204   1.110       .  S
C1199      H1205   1.079       .  S
C1199      C1200   1.367   1_556  D
C1200      C1517   1.497       .  S
C1201      H1206   1.086       .  S
C1202      C1541   1.493       .  S
C1207      C1208   1.532       .  S
C1207      C1213   1.539       .  S
C1207      C1211   1.530       .  S
C1207      C1493   1.531       .  S
C1208      H1215   1.087       .  S
C1208      C1209   1.364       .  D
C1209      C1910   1.476       .  S
C1210      C1214   1.545       .  S
C1210      H1216   1.109       .  S
C1211      H1217   1.085       .  S
C1211      C1212   1.368       .  D
C1212      C1526   1.498       .  S
C1213      H1218   1.081       .  S
C1214      C1478   1.485       .  S
N1219      C1224   1.352       .  A
N1219      C1223   1.355       .  A
N1219      H1251   1.039       .  S
N1220      C1227   1.353       .  A
N1220      C1228   1.350       .  A
N1221      C1226   1.356       .  A
N1221      C1225   1.353       .  A
N1221      H1252   1.039       .  S
N1222      C1229   1.349       .  A
N1222      C1230   1.352       .  A
C1223      C1231   1.386       .  A
C1223      C1239   1.415       .  A
C1224      C1240   1.415       .  A
C1224      C1232   1.388       .  A
C1225      C1233   1.388       .  A
C1225      C1242   1.418       .  A
C1226      C1241   1.418       .  A
C1226      C1234   1.386       .  A
C1227      C1239   1.412       .  A
C1227      C1235   1.384       .  A
C1228      C1242   1.414       .  A
C1228      C1236   1.389       .  A
C1229      C1237   1.386       .  A
C1229      C1240   1.410       .  A
C1230      C1238   1.386       .  A
C1230      C1241   1.412       .  A
C1231      C1232   1.374       .  A
C1231      H1243   1.082       .  S
C1232      H1244   1.082       .  S
C1233      C1234   1.376       .  A
C1233      H1245   1.082       .  S
C1234      H1246   1.082       .  S
C1235      C1236   1.372       .  A
C1235      H1247   1.082       .  S
C1236      H1248   1.082       .  S
C1237      C1238   1.373       .  A
C1237      H1249   1.082       .  S
C1238      H1250   1.082       .  S
C1239      C1790   1.494       .  S
C1240      C1502   1.480       .  S
C1241      C1469   1.495       .  S
C1242      C1814   1.482       .  S
N1253      C1258   1.356       .  A
N1253      C1257   1.353       .  A
N1253      H1285   1.037       .  S
N1254      C1261   1.351       .  A
N1254      C1262   1.354       .  A
N1255      C1260   1.353       .  A
N1255      C1259   1.356       .  A
N1255      H1286   1.037       .  S
N1256      C1263   1.354       .  A
N1256      C1264   1.352       .  A
C1257      C1265   1.387       .  A
C1257      C1273   1.419       .  A
C1258      C1274   1.419       .  A
C1258      C1266   1.387       .  A
C1259      C1267   1.387       .  A
C1259      C1276   1.419       .  A
C1260      C1275   1.418       .  A
C1260      C1268   1.388       .  A
C1261      C1273   1.416       .  A
C1261      C1269   1.387       .  A
C1262      C1276   1.415       .  A
C1262      C1270   1.386       .  A
C1263      C1271   1.386       .  A
C1263      C1274   1.417       .  A
C1264      C1272   1.387       .  A
C1264      C1275   1.417       .  A
C1265      C1266   1.374       .  A
C1265      H1277   1.082       .  S
C1266      H1278   1.081       .  S
C1267      C1268   1.374       .  A
C1267      H1279   1.081       .  S
C1268      H1280   1.082       .  S
C1269      C1270   1.372       .  A
C1269      H1281   1.082       .  S
C1270      H1282   1.082       .  S
C1271      C1272   1.375       .  A
C1271      H1283   1.082       .  S
C1272      H1284   1.082       .  S
C1273      C1445   1.488       .  S
C1274      C1550   1.496       .  S
C1275      C1574   1.486       .  S
C1276      C1421   1.494       .  S
C1287      C1288   1.532       .  S
C1287      C1293   1.535       .  S
C1287      C1291   1.542       .  S
C1287      C1454   1.536       .  S
C1288      H1295   1.086       .  S
C1288      C1289   1.363       .  D
C1289      C1982   1.476       .  S
C1290      C1294   1.546       .  S
C1290      H1296   1.110       .  S
C1291      H1297   1.078       .  S
C1291      C1292   1.368       .  D
C1292      C1397   1.495       .  S
C1293      H1298   1.086       .  S
C1294      C1430   1.491       .  S
C1299      C1300   1.540       .  S
C1299      C1305   1.529       .  S
C1299      C1303   1.532       .  S
C1299      C1373   1.531       .  S
C1300      H1307   1.080       .  S
C1300      C1301   1.364       .  D
C1301      C1877   1.485       .  S
C1302      C1306   1.547       .  S
C1302      H1308   1.108       .  S
C1303      H1309   1.086       .  S
C1303      C1304   1.368       .  D
C1304      C1406   1.497   1_556  S
C1305      H1310   1.086       .  S
C1306      C1349   1.493       .  S
N1311      C1316   1.351       .  A
N1311      C1315   1.356       .  A
N1311      H1343   1.034       .  S
N1312      C1319   1.353       .  A
N1312      C1320   1.350       .  A
N1313      C1318   1.355       .  A
N1313      C1317   1.351       .  A
N1313      H1344   1.036       .  S
N1314      C1321   1.350       .  A
N1314      C1322   1.353       .  A
C1315      C1323   1.388       .  A
C1315      C1331   1.420       .  A
C1316      C1332   1.416       .  A
C1316      C1324   1.387       .  A
C1317      C1325   1.387       .  A
C1317      C1334   1.415       .  A
C1318      C1333   1.417       .  A
C1318      C1326   1.388       .  A
C1319      C1331   1.415       .  A
C1319      C1327   1.386       .  A
C1320      C1334   1.414       .  A
C1320      C1328   1.387       .  A
C1321      C1329   1.387       .  A
C1321      C1332   1.413       .  A
C1322      C1330   1.386       .  A
C1322      C1333   1.414       .  A
C1323      C1324   1.373       .  A
C1323      H1335   1.081       .  S
C1324      H1336   1.082       .  S
C1325      C1326   1.374       .  A
C1325      H1337   1.083       .  S
C1326      H1338   1.081       .  S
C1327      C1328   1.372       .  A
C1327      H1339   1.082       .  S
C1328      H1340   1.082       .  S
C1329      C1330   1.372       .  A
C1329      H1341   1.082       .  S
C1330      H1342   1.082       .  S
C1331      C1598   1.492       .  S
C1332      C1382   1.478       .  S
C1333      C1358   1.491       .  S
C1334      C1622   1.480       .  S
C1345      C1346   1.407       .  A
C1345      C1350   1.407       .  A
C1345      H1355   1.083       .  S
C1346      C1351   1.492       .  S
C1346      C1347   1.410       .  A
C1347      C1348   1.398       .  A
C1347      O1352   1.372       .  S
C1348      C1349   1.406       .  A
C1348      H1353   1.083       .  S
C1349      C1350   1.410       .  A
C1350      O1354   1.371       .  S
C1351      C1356   1.413       .  A
C1351      C1360   1.406       .  A
O1352      H1368   0.992       .  S
O1354      H1365   0.992       .  S
C1356      C1357   1.403       .  A
C1356      O1361   1.372       .  S
C1357      C1358   1.403       .  A
C1357      H1362   1.083       .  S
C1358      C1359   1.407       .  A
C1359      C1360   1.400       .  A
C1359      O1363   1.372       .  S
C1360      H1364   1.083       .  S
O1361      H1366   0.992       .  S
O1363      H1367   0.992       .  S
C1369      C1370   1.399       .  A
C1369      C1374   1.398       .  A
C1369      H1379   1.083       .  S
C1370      C1375   1.478       .  S
C1370      C1371   1.405       .  A
C1371      C1372   1.396       .  A
C1371      O1376   1.372       .  S
C1372      C1373   1.411       .  A
C1372      H1377   1.075       .  S
C1373      C1374   1.418       .  A
C1374      O1378   1.373       .  S
C1375      C1380   1.409       .  A
C1375      C1384   1.404       .  A
O1376      H1392   0.992       .  S
O1378      H1389   0.992       .  S
C1380      C1381   1.399       .  A
C1380      O1385   1.372       .  S
C1381      C1382   1.401       .  A
C1381      H1386   1.084       .  S
C1382      C1383   1.404       .  A
C1383      C1384   1.396       .  A
C1383      O1387   1.372       .  S
C1384      H1388   1.084       .  S
O1385      H1390   0.992       .  S
O1387      H1391   0.992       .  S
C1393      C1398   1.397       .  A
C1393      H1403   1.083       .  S
C1394      C1399   1.496       .  S
C1394      C1395   1.413   1_554  A
C1395      C1396   1.406       .  A
C1395      O1400   1.371       .  S
C1396      H1401   1.079       .  S
C1397      C1398   1.415       .  A
C1398      O1402   1.372       .  S
C1399      C1404   1.411   1_554  A
O1400      H1416   0.992       .  S
O1402      H1413   0.992       .  S
C1404      C1405   1.400       .  A
C1404      O1409   1.372       .  S
C1405      C1406   1.408   1_556  A
C1405      H1410   1.083       .  S
C1407      C1408   1.405       .  A
C1407      O1411   1.371       .  S
C1408      H1412   1.083       .  S
O1409      H1414   0.992       .  S
O1411      H1415   0.992       .  S
C1417      C1418   1.408       .  A
C1417      C1422   1.402       .  A
C1417      H1427   1.083       .  S
C1418      C1423   1.495       .  S
C1418      C1419   1.413       .  A
C1419      C1420   1.405       .  A
C1419      O1424   1.372       .  S
C1420      C1421   1.403       .  A
C1420      H1425   1.084       .  S
C1421      C1422   1.407       .  A
C1422      O1426   1.371       .  S
C1423      C1428   1.414       .  A
C1423      C1432   1.404       .  A
O1424      H1440   0.992       .  S
O1426      H1437   0.992       .  S
C1428      C1429   1.407       .  A
C1428      O1433   1.371       .  S
C1429      C1430   1.404       .  A
C1429      H1434   1.083       .  S
C1430      C1431   1.411       .  A
C1431      C1432   1.398       .  A
C1431      O1435   1.372       .  S
C1432      H1436   1.083       .  S
O1433      H1438   0.991       .  S
O1435      H1439   0.992       .  S
C1441      C1442   1.402       .  A
C1441      C1446   1.400       .  A
C1441      H1451   1.084       .  S
C1442      C1447   1.474       .  S
C1442      C1443   1.406       .  A
C1443      C1444   1.399       .  A
C1443      O1448   1.372       .  S
C1444      C1445   1.403       .  A
C1444      H1449   1.084       .  S
C1445      C1446   1.410       .  A
C1446      O1450   1.371       .  S
C1447      C1452   1.401       .  A
C1447      C1456   1.398       .  A
O1448      H1464   0.992       .  S
O1450      H1461   0.992       .  S
C1452      C1453   1.398       .  A
C1452      O1457   1.373       .  S
C1453      C1454   1.414       .  A
C1453      H1458   1.075       .  S
C1454      C1455   1.419       .  A
C1455      C1456   1.401       .  A
C1455      O1459   1.372       .  S
C1456      H1460   1.084       .  S
O1457      H1462   0.992       .  S
O1459      H1463   0.992       .  S
C1465      C1466   1.404       .  A
C1465      C1470   1.404       .  A
C1465      H1475   1.083       .  S
C1466      C1471   1.485       .  S
C1466      C1467   1.409       .  A
C1467      C1468   1.401       .  A
C1467      O1472   1.372       .  S
C1468      C1469   1.403       .  A
C1468      H1473   1.084       .  S
C1469      C1470   1.411       .  A
C1470      O1474   1.371       .  S
C1471      C1476   1.407       .  A
C1471      C1480   1.407       .  A
O1472      H1488   0.992       .  S
O1474      H1485   0.992       .  S
C1476      C1477   1.400       .  A
C1476      O1481   1.372       .  S
C1477      C1478   1.405       .  A
C1477      H1482   1.084       .  S
C1478      C1479   1.406       .  A
C1479      C1480   1.406       .  A
C1479      O1483   1.371       .  S
C1480      H1484   1.083       .  S
O1481      H1486   0.992       .  S
O1483      H1487   0.992       .  S
C1489      C1490   1.398       .  A
C1489      C1494   1.399       .  A
C1489      H1499   1.084       .  S
C1490      C1495   1.476       .  S
C1490      C1491   1.404       .  A
C1491      C1492   1.397       .  A
C1491      O1496   1.372       .  S
C1492      C1493   1.411       .  A
C1492      H1497   1.076       .  S
C1493      C1494   1.418       .  A
C1494      O1498   1.373       .  S
C1495      C1500   1.408       .  A
C1495      C1504   1.404       .  A
O1496      H1512   0.992       .  S
O1498      H1509   0.992       .  S
C1500      C1501   1.399       .  A
C1500      O1505   1.372       .  S
C1501      C1502   1.402       .  A
C1501      H1506   1.084       .  S
C1502      C1503   1.405       .  A
C1503      C1504   1.397       .  A
C1503      O1507   1.371       .  S
C1504      H1508   1.084       .  S
O1505      H1510   0.992       .  S
O1507      H1511   0.992       .  S
C1513      C1518   1.397   1_556  A
C1513      H1523   1.083       .  S
C1514      C1519   1.497       .  S
C1514      C1515   1.415       .  A
C1515      C1516   1.409       .  A
C1515      O1520   1.371       .  S
C1516      H1521   1.081       .  S
C1517      C1518   1.413       .  A
C1518      O1522   1.372   1_554  S
C1519      C1524   1.411       .  A
O1520      H1536   0.992       .  S
O1522      H1533   0.992   1_556  S
C1524      C1525   1.396       .  A
C1524      O1529   1.372       .  S
C1525      C1526   1.407       .  A
C1525      H1530   1.083       .  S
C1527      C1528   1.408       .  A
C1527      O1531   1.370       .  S
C1528      H1532   1.083       .  S
O1529      H1534   0.992       .  S
O1531      H1535   0.992       .  S
C1537      C1538   1.408       .  A
C1537      C1542   1.407       .  A
C1537      H1547   1.083       .  S
C1538      C1543   1.496       .  S
C1538      C1539   1.410       .  A
C1539      C1540   1.401       .  A
C1539      O1544   1.373       .  S
C1540      C1541   1.406       .  A
C1540      H1545   1.084       .  S
C1541      C1542   1.410       .  A
C1542      O1546   1.371       .  S
C1543      C1548   1.412       .  A
C1543      C1552   1.407       .  A
O1544      H1560   0.992       .  S
O1546      H1557   0.992       .  S
C1548      C1549   1.403       .  A
C1548      O1553   1.371       .  S
C1549      C1550   1.403       .  A
C1549      H1554   1.084       .  S
C1550      C1551   1.409       .  A
C1551      C1552   1.404       .  A
C1551      O1555   1.371       .  S
C1552      H1556   1.083       .  S
O1553      H1558   0.991       .  S
O1555      H1559   0.992       .  S
C1561      C1562   1.400       .  A
C1561      C1566   1.403       .  A
C1561      H1571   1.084       .  S
C1562      C1567   1.478       .  S
C1562      C1563   1.402       .  A
C1563      C1564   1.397       .  A
C1563      O1568   1.373       .  S
C1564      C1565   1.412       .  A
C1564      H1569   1.075       .  S
C1565      C1566   1.419       .  A
C1566      O1570   1.372       .  S
C1567      C1572   1.408       .  A
C1567      C1576   1.403       .  A
O1568      H1584   0.992       .  S
O1570      H1581   0.992       .  S
C1572      C1573   1.397       .  A
C1572      O1577   1.372       .  S
C1573      C1574   1.401       .  A
C1573      H1578   1.084       .  S
C1574      C1575   1.408       .  A
C1575      C1576   1.402       .  A
C1575      O1579   1.371       .  S
C1576      H1580   1.083       .  S
O1577      H1582   0.992       .  S
O1579      H1583   0.992       .  S
C1585      C1586   1.404       .  A
C1585      C1590   1.396       .  A
C1585      H1595   1.083       .  S
C1586      C1591   1.492       .  S
C1586      C1587   1.414       .  A
C1587      C1588   1.406       .  A
C1587      O1592   1.371       .  S
C1588      C1589   1.402       .  A
C1588      H1593   1.084       .  S
C1589      C1590   1.409       .  A
C1590      O1594   1.372       .  S
C1591      C1596   1.412       .  A
C1591      C1600   1.407       .  A
O1592      H1608   0.992       .  S
O1594      H1605   0.992       .  S
C1596      C1597   1.403       .  A
C1596      O1601   1.373       .  S
C1597      C1598   1.402       .  A
C1597      H1602   1.084       .  S
C1598      C1599   1.408       .  A
C1599      C1600   1.402       .  A
C1599      O1603   1.371       .  S
C1600      H1604   1.083       .  S
O1601      H1606   0.992       .  S
O1603      H1607   0.991       .  S
C1609      C1610   1.400       .  A
C1609      C1614   1.398       .  A
C1609      H1619   1.083       .  S
C1610      C1615   1.480       .  S
C1610      C1611   1.406       .  A
C1611      C1612   1.396       .  A
C1611      O1616   1.372       .  S
C1612      C1613   1.411       .  A
C1612      H1617   1.075       .  S
C1613      C1614   1.416       .  A
C1614      O1618   1.373       .  S
C1615      C1620   1.410       .  A
C1615      C1624   1.404       .  A
O1616      H1632   0.992       .  S
O1618      H1629   0.992       .  S
C1620      C1621   1.399       .  A
C1620      O1625   1.372       .  S
C1621      C1622   1.400       .  A
C1621      H1626   1.084       .  S
C1622      C1623   1.405       .  A
C1623      C1624   1.396       .  A
C1623      O1627   1.372       .  S
C1624      H1628   1.083       .  S
O1625      H1630   0.992       .  S
O1627      H1631   0.992       .  S
C1633      C1638   1.405       .  A
C1633      H1643   1.083       .  S
C1634      C1639   1.491       .  S
C1634      C1635   1.410       .  A
C1635      C1636   1.395       .  A
C1635      O1640   1.372       .  S
C1636      C1637   1.406       .  A
C1636      H1641   1.083       .  S
C1638      O1642   1.371       .  S
C1639      C1644   1.411       .  A
O1640      H1656   0.992       .  S
O1642      H1653   0.991       .  S
C1644      C1645   1.406       .  A
C1644      O1649   1.372       .  S
C1645      H1650   1.078       .  S
C1646      C1647   1.416   1_554  A
C1647      C1648   1.395       .  A
C1647      O1651   1.371       .  S
C1648      H1652   1.083       .  S
O1649      H1654   0.992       .  S
O1651      H1655   0.992       .  S
C1657      C1658   1.406       .  A
C1657      C1662   1.403       .  A
C1657      H1667   1.083       .  S
C1658      C1663   1.491       .  S
C1658      C1659   1.413       .  A
C1659      C1660   1.403       .  A
C1659      O1664   1.372       .  S
C1660      C1661   1.401       .  A
C1660      H1665   1.084       .  S
C1661      C1662   1.407       .  A
C1662      O1666   1.372       .  S
C1663      C1668   1.413       .  A
C1663      C1672   1.404       .  A
O1664      H1680   0.992       .  S
O1666      H1677   0.992       .  S
C1668      C1669   1.406       .  A
C1668      O1673   1.371       .  S
C1669      C1670   1.403       .  A
C1669      H1674   1.084       .  S
C1670      C1671   1.409       .  A
C1671      C1672   1.399       .  A
C1671      O1675   1.372       .  S
C1672      H1676   1.084       .  S
O1673      H1678   0.992       .  S
O1675      H1679   0.992       .  S
C1681      C1682   1.400       .  A
C1681      C1686   1.401       .  A
C1681      H1691   1.084       .  S
C1682      C1687   1.482       .  S
C1682      C1683   1.404       .  A
C1683      C1684   1.401       .  A
C1683      O1688   1.373       .  S
C1684      C1685   1.412       .  A
C1684      H1689   1.075       .  S
C1685      C1686   1.419       .  A
C1686      O1690   1.372       .  S
C1687      C1692   1.409       .  A
C1687      C1696   1.404       .  A
O1688      H1704   0.992       .  S
O1690      H1701   0.992       .  S
C1692      C1693   1.399       .  A
C1692      O1697   1.371       .  S
C1693      C1694   1.402       .  A
C1693      H1698   1.084       .  S
C1694      C1695   1.408       .  A
C1695      C1696   1.401       .  A
C1695      O1699   1.372       .  S
C1696      H1700   1.084       .  S
O1697      H1702   0.992       .  S
O1699      H1703   0.992       .  S
C1705      C1706   1.406       .  A
C1705      C1710   1.402       .  A
C1705      H1715   1.083       .  S
C1706      C1711   1.490       .  S
C1706      C1707   1.412       .  A
C1707      C1708   1.402       .  A
C1707      O1712   1.373       .  S
C1708      C1709   1.403       .  A
C1708      H1713   1.084       .  S
C1709      C1710   1.408       .  A
C1710      O1714   1.371       .  S
C1711      C1716   1.412       .  A
C1711      C1720   1.406       .  A
O1712      H1728   0.992       .  S
O1714      H1725   0.992       .  S
C1716      C1717   1.403       .  A
C1716      O1721   1.371       .  S
C1717      C1718   1.402       .  A
C1717      H1722   1.084       .  S
C1718      C1719   1.407       .  A
C1719      C1720   1.400       .  A
C1719      O1723   1.372       .  S
C1720      H1724   1.084       .  S
O1721      H1726   0.991       .  S
O1723      H1727   0.992       .  S
C1729      C1730   1.405       .  A
C1729      C1734   1.397       .  A
C1729      H1739   1.084       .  S
C1730      C1735   1.484       .  S
C1730      C1731   1.411       .  A
C1731      C1732   1.403       .  A
C1731      O1736   1.373       .  S
C1732      C1733   1.403       .  A
C1732      H1737   1.084       .  S
C1733      C1734   1.405       .  A
C1734      O1738   1.371       .  S
C1735      C1740   1.405       .  A
C1735      C1744   1.402       .  A
O1736      H1752   0.992       .  S
O1738      H1749   0.992       .  S
C1740      C1741   1.401       .  A
C1740      O1745   1.373       .  S
C1741      C1742   1.413       .  A
C1741      H1746   1.076       .  S
C1742      C1743   1.416       .  A
C1743      C1744   1.398       .  A
C1743      O1747   1.372       .  S
C1744      H1748   1.084       .  S
O1745      H1750   0.992       .  S
O1747      H1751   0.992       .  S
C1753      C1758   1.395       .  A
C1753      H1763   1.083       .  S
C1754      C1759   1.491       .  S
C1754      C1755   1.412       .  A
C1755      C1756   1.405       .  A
C1755      O1760   1.371       .  S
C1756      H1761   1.081       .  S
C1757      C1758   1.416       .  A
C1758      O1762   1.372       .  S
C1759      C1764   1.409       .  A
O1760      H1776   0.992       .  S
O1762      H1773   0.992       .  S
C1764      C1765   1.396       .  A
C1764      O1769   1.372       .  S
C1765      C1766   1.407       .  A
C1765      H1770   1.083       .  S
C1767      C1768   1.404       .  A
C1767      O1771   1.371       .  S
C1768      H1772   1.083       .  S
O1769      H1774   0.992       .  S
O1771      H1775   0.991       .  S
C1777      C1778   1.405       .  A
C1777      C1782   1.399       .  A
C1777      H1787   1.083       .  S
C1778      C1783   1.491       .  S
C1778      C1779   1.413       .  A
C1779      C1780   1.406       .  A
C1779      O1784   1.371       .  S
C1780      C1781   1.403       .  A
C1780      H1785   1.084       .  S
C1781      C1782   1.407       .  A
C1782      O1786   1.372       .  S
C1783      C1788   1.411       .  A
C1783      C1792   1.406       .  A
O1784      H1800   0.991       .  S
O1786      H1797   0.992       .  S
C1788      C1789   1.403       .  A
C1788      O1793   1.372       .  S
C1789      C1790   1.403       .  A
C1789      H1794   1.084       .  S
C1790      C1791   1.408       .  A
C1791      C1792   1.403       .  A
C1791      O1795   1.371       .  S
C1792      H1796   1.083       .  S
O1793      H1798   0.992       .  S
O1795      H1799   0.992       .  S
C1801      C1802   1.401       .  A
C1801      C1806   1.397       .  A
C1801      H1811   1.083       .  S
C1802      C1807   1.484       .  S
C1802      C1803   1.407       .  A
C1803      C1804   1.400       .  A
C1803      O1808   1.372       .  S
C1804      C1805   1.412       .  A
C1804      H1809   1.077       .  S
C1805      C1806   1.415       .  A
C1806      O1810   1.373       .  S
C1807      C1812   1.412       .  A
C1807      C1816   1.406       .  A
O1808      H1824   0.992       .  S
O1810      H1821   0.992       .  S
C1812      C1813   1.396       .  A
C1812      O1817   1.372       .  S
C1813      C1814   1.400       .  A
C1813      H1818   1.084       .  S
C1814      C1815   1.406       .  A
C1815      C1816   1.399       .  A
C1815      O1819   1.371       .  S
C1816      H1820   1.083       .  S
O1817      H1822   0.992       .  S
O1819      H1823   0.992       .  S
C1825      C1830   1.399       .  A
C1825      H1835   1.084       .  S
C1826      C1831   1.484       .  S
C1826      C1827   1.406       .  A
C1827      C1828   1.403       .  A
C1827      O1832   1.372       .  S
C1828      H1833   1.083       .  S
C1829      C1830   1.412       .  A
C1830      O1834   1.371       .  S
C1831      C1836   1.410       .  A
O1832      H1848   0.992       .  S
O1834      H1845   0.992       .  S
C1836      C1837   1.402       .  A
C1836      O1841   1.371       .  S
C1837      H1842   1.084       .  S
C1838      C1839   1.406       .  A
C1839      C1840   1.399       .  A
C1839      O1843   1.369       .  S
C1840      H1844   1.084       .  S
O1841      H1846   0.992   1_556  S
O1843      H1847   0.992       .  S
C1849      C1854   1.401       .  A
C1849      H1859   1.084       .  S
C1850      C1855   1.482       .  S
C1850      C1851   1.407   1_554  A
C1851      C1852   1.403       .  A
C1851      O1856   1.372       .  S
C1852      C1853   1.408   1_556  A
C1852      H1857   1.083       .  S
C1854      O1858   1.372       .  S
C1855      C1860   1.409       .  A
O1856      H1872   0.992       .  S
O1858      H1869   0.992       .  S
C1860      C1861   1.401       .  A
C1860      O1865   1.371   1_554  S
C1861      C1862   1.401       .  A
C1861      H1866   1.083       .  S
C1863      C1864   1.401       .  A
C1863      O1867   1.372       .  S
C1864      H1868   1.084       .  S
O1865      H1870   0.992   1_556  S
O1867      H1871   0.992       .  S
C1873      C1878   1.403       .  A
C1873      H1883   1.083       .  S
C1874      C1879   1.489       .  S
C1874      C1875   1.408       .  A
C1875      C1876   1.400       .  A
C1875      O1880   1.373       .  S
C1876      C1877   1.405       .  A
C1876      H1881   1.084       .  S
C1878      O1882   1.371       .  S
C1879      C1884   1.412       .  A
O1880      H1896   0.992       .  S
O1882      H1893   0.992       .  S
C1884      C1885   1.403       .  A
C1884      O1889   1.371       .  S
C1885      C1886   1.404       .  A
C1885      H1890   1.083       .  S
C1887      C1888   1.400       .  A
C1887      O1891   1.372       .  S
C1888      H1892   1.084       .  S
O1889      H1894   0.992       .  S
O1891      H1895   0.992       .  S
C1897      C1902   1.399       .  A
C1897      H1907   1.084       .  S
C1898      C1903   1.485       .  S
C1898      C1899   1.407       .  A
C1899      C1900   1.402       .  A
C1899      O1904   1.372       .  S
C1900      H1905   1.084       .  S
C1901      C1902   1.407       .  A
C1902      O1906   1.372       .  S
C1903      C1908   1.412       .  A
O1904      H1920   0.992       .  S
O1906      H1917   0.992       .  S
C1908      C1909   1.405       .  A
C1908      O1913   1.371       .  S
C1909      H1914   1.084       .  S
C1910      C1911   1.409       .  A
C1911      C1912   1.395       .  A
C1911      O1915   1.372       .  S
C1912      H1916   1.084       .  S
O1913      H1918   0.992       .  S
O1915      H1919   0.991       .  S
C1921      C1926   1.402       .  A
C1921      H1931   1.084       .  S
C1922      C1927   1.488       .  S
C1922      C1923   1.408   1_554  A
C1923      C1924   1.402       .  A
C1923      O1928   1.373       .  S
C1924      C1925   1.407   1_556  A
C1924      H1929   1.083       .  S
C1926      O1930   1.371       .  S
C1927      C1932   1.410   1_554  A
O1928      H1944   0.992       .  S
O1930      H1941   0.992       .  S
C1932      C1933   1.402       .  A
C1932      O1937   1.371       .  S
C1933      H1938   1.083       .  S
C1934      C1935   1.413       .  A
C1935      C1936   1.401       .  A
C1935      O1939   1.372       .  S
C1936      H1940   1.084       .  S
O1937      H1942   0.992       .  S
O1939      H1943   0.992       .  S
C1945      C1950   1.400       .  A
C1945      H1955   1.084       .  S
C1946      C1951   1.480       .  S
C1946      C1947   1.406   1_554  A
C1947      C1948   1.402       .  A
C1947      O1952   1.371       .  S
C1948      C1949   1.408   1_556  A
C1948      H1953   1.083       .  S
C1950      O1954   1.372       .  S
C1951      C1956   1.407       .  A
O1952      H1968   0.992       .  S
O1954      H1965   0.992       .  S
C1956      C1957   1.403       .  A
C1956      O1961   1.371       .  S
C1957      C1958   1.403       .  A
C1957      H1962   1.080       .  S
C1959      C1960   1.401       .  A
C1959      O1963   1.372       .  S
C1960      H1964   1.084       .  S
O1961      H1966   0.992       .  S
O1963      H1967   0.992       .  S
C1969      C1974   1.403       .  A
C1969      H1979   1.084       .  S
C1970      C1975   1.478       .  S
C1970      C1971   1.407       .  A
C1971      C1972   1.401       .  A
C1971      O1976   1.371       .  S
C1972      C1973   1.405       .  A
C1972      H1977   1.083       .  S
C1974      O1978   1.371       .  S
C1975      C1980   1.408       .  A
O1976      H1992   0.992       .  S
O1978      H1989   0.992       .  S
C1980      C1981   1.402       .  A
C1980      O1985   1.371       .  S
C1981      C1982   1.401       .  A
C1981      H1986   1.082       .  S
C1983      C1984   1.397       .  A
C1983      O1987   1.372   1_556  S
C1984      H1988   1.084       .  S
O1985      H1990   0.992       .  S
O1987      H1991   0.992   1_554  S
C1993      C1998   1.398       .  A
C1993      H2003   1.084       .  S
C1994      C1999   1.478       .  S
C1994      C1995   1.409       .  A
C1995      C1996   1.402       .  A
C1995      O2000   1.372       .  S
C1996      H2001   1.083       .  S
C1997      C1998   1.414       .  A
C1998      O2002   1.372       .  S
C1999      C2004   1.405       .  A
O2000      H2016   0.992       .  S
O2002      H2013   0.992       .  S
C2004      C2005   1.396       .  A
C2004      O2009   1.372       .  S
C2005      H2010   1.084       .  S
C2006      C2007   1.410       .  A
C2007      C2008   1.402       .  A
C2007      O2011   1.371       .  S
C2008      H2012   1.084       .  S
O2009      H2014   0.992       .  S
O2011      H2015   0.992       .  S
C2017      C2022   1.396       .  A
C2017      H2027   1.084       .  S
C2018      C2023   1.489       .  S
C2018      C2019   1.413       .  A
C2019      C2020   1.406       .  A
C2019      O2024   1.372       .  S
C2020      H2025   1.084       .  S
C2021      C2022   1.406       .  A
C2022      O2026   1.373       .  S
C2023      C2028   1.408       .  A
O2024      H2040   0.992       .  S
O2026      H2037   0.992       .  S
C2028      C2029   1.400       .  A
C2028      O2033   1.371       .  S
C2029      H2034   1.083       .  S
C2030      C2031   1.411       .  A
C2031      C2032   1.402       .  A
C2031      O2035   1.371       .  S
C2032      H2036   1.084       .  S
O2033      H2038   0.992       .  S
O2035      H2039   0.992       .  S
C2041      C2046   1.404       .  A
C2041      H2051   1.084       .  S
C2042      C2047   1.489       .  S
C2042      C2043   1.408       .  A
C2043      C2044   1.403       .  A
C2043      O2048   1.373       .  S
C2044      H2049   1.083       .  S
C2045      C2046   1.411       .  A
C2046      O2050   1.371       .  S
C2047      C2052   1.413       .  A
O2048      H2064   0.992       .  S
O2050      H2061   0.992       .  S
C2052      C2053   1.405       .  A
C2052      O2057   1.371       .  S
C2053      H2058   1.084       .  S
C2054      C2055   1.408   1_554  A
C2055      C2056   1.399       .  A
C2055      O2059   1.372       .  S
C2056      H2060   1.084       .  S
O2057      H2062   0.992       .  S
O2059      H2063   0.992       .  S
C2065      C2070   1.402       .  A
C2065      H2075   1.084       .  S
C2066      C2071   1.484       .  S
C2066      C2067   1.407   1_554  A
C2067      C2068   1.399       .  A
C2067      O2072   1.373       .  S
C2068      C2069   1.405   1_556  A
C2068      H2073   1.084       .  S
C2070      O2074   1.371       .  S
C2071      C2076   1.409   1_554  A
O2072      H2088   0.992       .  S
O2074      H2085   0.992       .  S
C2076      C2077   1.400       .  A
C2076      O2081   1.371       .  S
C2077      H2082   1.083       .  S
C2078      C2079   1.414       .  A
C2079      C2080   1.400       .  A
C2079      O2083   1.372       .  S
C2080      H2084   1.084       .  S
O2081      H2086   0.992       .  S
O2083      H2087   0.992       .  S
C2089      C2094   1.400       .  A
C2089      H2099   1.084       .  S
C2090      C2095   1.483       .  S
C2090      C2091   1.408   1_554  A
C2091      C2092   1.400       .  A
C2091      O2096   1.373       .  S
C2092      C2093   1.406   1_556  A
C2092      H2097   1.084       .  S
C2094      O2098   1.371       .  S
C2095      C2100   1.409   1_554  A
O2096      H2112   0.992       .  S
O2098      H2109   0.992       .  S
C2100      C2101   1.400       .  A
C2100      O2105   1.371       .  S
C2101      H2106   1.083       .  S
C2102      C2103   1.413       .  A
C2103      C2104   1.397       .  A
C2103      O2107   1.372       .  S
C2104      H2108   1.084       .  S
O2105      H2110   0.992       .  S
O2107      H2111   0.992       .  S
