geometry optimzed in LAMMPS
_audit_creation_date              2020-12-01 
_audit_creation_method            'lammps2cif' 
_symmetry_space_group_name_H-M    'P1' 
_symmetry_Int_Tables_number       1 
_symmetry_cell_setting            triclinic 
loop_ 
_symmetry_equiv_pos_as_xyz 
  x,y,z 
_cell_length_a                    39.05829973 
_cell_length_b                    39.05927586348996 
_cell_length_c                    26.100777683714433 
_cell_angle_alpha                 89.90342389482647 
_cell_angle_beta                  89.79647399239506 
_cell_angle_gamma                 90.15862700775602 
loop_ 
_atom_site_label 
_atom_site_type_symbol 
_atom_site_fract_x 
_atom_site_fract_y 
_atom_site_fract_z 
_atom_site_charge 
O1          O  0.50062863  0.88350920  0.95299700    -0.72000
O2          O  0.50920416  0.87438206  0.09726493    -0.72300
O3          O  0.55351217  0.87795131  0.01809061    -0.72100
O4          O  0.45655313  0.87980825  0.03195281    -0.72100
O5          O  0.45472081  0.82532962  0.01551439    -0.72100
O6          O  0.55213777  0.82234906  0.01973625    -0.72100
O7          O  0.50199888  0.81946463  0.09023499    -0.72000
O8          O  0.50472467  0.82834811  0.94512909    -0.72200
V9          V  0.50499254  0.87791036  0.02498124     1.35200
V10         V  0.50344213  0.82484364  0.01781816     1.35200
C11         C  0.50181194  0.85748288  0.92428171     0.77200
C12         C  0.50601515  0.84543056  0.11857107     0.77300
C13         C  0.56941990  0.84976930  0.01800090     0.77100
C14         C  0.43903676  0.85304527  0.02409587     0.77100
O15         O  0.51046466  0.88520320  0.45234170    -0.72000
O16         O  0.50080323  0.87660326  0.59699762    -0.72300
O17         O  0.55418335  0.88160415  0.53182041    -0.72100
O18         O  0.45717267  0.88022082  0.51678902    -0.72100
O19         O  0.45804345  0.82460789  0.51896805    -0.72100
O20         O  0.55534892  0.82707383  0.51572404    -0.72100
O21         O  0.50762126  0.82167386  0.58995454    -0.72000
O22         O  0.50588795  0.83001838  0.44513102    -0.72200
V23         V  0.50565409  0.87994778  0.52447293     1.35200
V24         V  0.50669969  0.82685411  0.51767106     1.35200
C25         C  0.50879955  0.85902261  0.42392361     0.77200
C26         C  0.50373433  0.84761616  0.61831489     0.77300
C27         C  0.57138531  0.85464297  0.52427818     0.77100
C28         C  0.44108941  0.85206059  0.51593578     0.77100
O29         O  0.82946389  0.54040548  0.00751024    -0.72000
O30         O  0.82722085  0.44313992  0.01236982    -0.72300
O31         O  0.82799948  0.49309639  0.08301220    -0.72100
O32         O  0.82917679  0.49032973  0.93673707    -0.72100
O33         O  0.88451929  0.49545976  0.93822330    -0.72100
O34         O  0.88310047  0.48602103  0.08274808    -0.72100
O35         O  0.88253728  0.44222397  0.00314430    -0.72000
O36         O  0.88461462  0.53913770  0.01798731    -0.72200
V37         V  0.82940651  0.49173097  0.00987734     1.35200
V38         V  0.88268564  0.49071021  0.01049637     1.35200
C39         C  0.85733849  0.55632854  0.01400852     0.77200
C40         C  0.85446688  0.42614345  0.00688132     0.77300
C41         C  0.85555635  0.48922746  0.10785047     0.77100
C42         C  0.85722970  0.49334999  0.91252745     0.77100
O43         O  0.85938144  0.49624681  0.43616844    -0.72000
O44         O  0.86158935  0.49377127  0.58239847    -0.72300
O45         O  0.86495832  0.44681887  0.50669979    -0.72100
O46         O  0.85653607  0.54350721  0.51090102    -0.72100
O47         O  0.80117907  0.53862218  0.51556731    -0.72100
O48         O  0.80950964  0.44177490  0.50798643    -0.72100
O49         O  0.80634804  0.48755698  0.58358240    -0.72000
O50         O  0.80393635  0.49255856  0.43866655    -0.72200
V51         V  0.85956541  0.49503500  0.50916652     1.35200
V52         V  0.80634393  0.49026944  0.51126979     1.35200
C53         C  0.83117323  0.49461886  0.41248820     0.77200
C54         C  0.83415288  0.48982605  0.60789334     0.77300
C55         C  0.83870062  0.42789070  0.50643252     0.77100
C56         C  0.82751860  0.55753742  0.51453621     0.77100
O57         O  0.50081359  0.12722437  0.05659625    -0.72000
O58         O  0.49963732  0.12643041  0.91083756    -0.72300
O59         O  0.54899762  0.12900218  0.98331822    -0.72100
O60         O  0.45146884  0.12471723  0.98522977    -0.72100
O61         O  0.44927324  0.18026819  0.98361305    -0.72100
O62         O  0.54653528  0.18457013  0.98133192    -0.72100
O63         O  0.49735838  0.18193730  0.90997799    -0.72000
O64         O  0.49859089  0.18273330  0.05598031    -0.72200
V65         V  0.50018020  0.12792200  0.98385741     1.35200
V66         V  0.49797130  0.18128330  0.98286281     1.35200
C67         C  0.50006302  0.15505574  0.08126738     0.77200
C68         C  0.49826708  0.15404950  0.88541789     0.77300
C69         C  0.56430808  0.15758261  0.98210496     0.77100
C70         C  0.43375900  0.15180678  0.98461598     0.77100
O71         O  0.49982621  0.15593503  0.41046510    -0.72000
O72         O  0.49939367  0.15604335  0.55649048    -0.72300
O73         O  0.45091653  0.15557514  0.48390111    -0.72100
O74         O  0.54825902  0.15631058  0.48375017    -0.72100
O75         O  0.54809621  0.21192313  0.48236432    -0.72100
O76         O  0.45069525  0.21122570  0.48265253    -0.72100
O77         O  0.49933139  0.21160476  0.55605875    -0.72000
O78         O  0.49948819  0.21149671  0.41026898    -0.72200
V79         V  0.49959417  0.15705041  0.48357660     1.35200
V80         V  0.49939422  0.21047327  0.48302620     1.35200
C81         C  0.49980381  0.18374095  0.38538506     0.77200
C82         C  0.49930791  0.18385577  0.58127514     0.77300
C83         C  0.43428847  0.18327856  0.48293381     0.77100
C84         C  0.56476468  0.18420783  0.48263831     0.77100
O85         O  0.16898150  0.55436420  0.97500526    -0.72000
O86         O  0.16840950  0.45691306  0.96765721    -0.72300
O87         O  0.17348378  0.50793124  0.89867785    -0.72100
O88         O  0.16412271  0.50313849  0.04325717    -0.72100
O89         O  0.10881826  0.50484748  0.03595736    -0.72100
O90         O  0.11820180  0.50716655  0.89062268    -0.72100
O91         O  0.11301943  0.45740351  0.96119004    -0.72000
O92         O  0.11384153  0.55487441  0.96477214    -0.72200
V93         V  0.16765566  0.50564741  0.97091759     1.35200
V94         V  0.11452086  0.50610631  0.96335749     1.35200
C95         C  0.14150925  0.57126969  0.97101194     0.77200
C96         C  0.14057863  0.44049447  0.96333903     0.77300
C97         C  0.14752490  0.50767502  0.86982586     0.77100
C98         C  0.13497646  0.50320008  0.06441847     0.77100
O99         O  0.12151248  0.49239412  0.39076467    -0.72000
O100        O  0.11277870  0.49433262  0.53544570    -0.72300
O101        O  0.11851395  0.54201456  0.46123756    -0.72100
O102        O  0.11620490  0.44444943  0.46426179    -0.72100
O103        O  0.17137646  0.44350234  0.47426506    -0.72100
O104        O  0.17391542  0.54082944  0.46753131    -0.72100
O105        O  0.16809035  0.49449370  0.54314200    -0.72000
O106        O  0.17681533  0.49012082  0.39773259    -0.72200
V107        V  0.11834401  0.49322759  0.46317339     1.35200
V108        V  0.17149828  0.49220214  0.47041697     1.35200
C109        C  0.15054160  0.49116695  0.36939118     0.77200
C110        C  0.13881801  0.49524015  0.56408768     0.77300
C111        C  0.14667678  0.55806721  0.46359215     0.77100
C112        C  0.14340857  0.42735317  0.47017999     0.77100
O113        O  0.88217133  0.82660022  0.96665389    -0.72000
O114        O  0.78563804  0.82896038  0.98344702    -0.72300
O115        O  0.83574899  0.87585119  0.98262421    -0.72100
O116        O  0.83195315  0.77904141  0.96775885    -0.72100
O117        O  0.84289665  0.77328773  0.04883511    -0.72100
O118        O  0.83714337  0.86979655  0.06527519    -0.72100
O119        O  0.79137441  0.81794860  0.06456717    -0.72000
O120        O  0.88825725  0.82518776  0.04925619    -0.72200
V121        V  0.83399100  0.82740721  0.97664501     1.35200
V122        V  0.83977800  0.82162951  0.05550168     1.35200
C123        C  0.90176504  0.82680099  0.00513445     0.77200
C124        C  0.77198270  0.82347280  0.02667140     0.77300
C125        C  0.83641703  0.88938314  0.02662400     0.77100
C126        C  0.83766358  0.75963270  0.00565745     0.77100
O127        O  0.83849352  0.87695191  0.47667338    -0.72000
O128        O  0.84303755  0.78001464  0.46564198    -0.72300
O129        O  0.79206369  0.82651938  0.46563498    -0.72100
O130        O  0.88917563  0.83024767  0.47642495    -0.72100
O131        O  0.88492561  0.82075149  0.55816169    -0.72100
O132        O  0.78798228  0.82770273  0.54866198    -0.72100
O133        O  0.83322816  0.77556673  0.54738194    -0.72000
O134        O  0.83938500  0.87225738  0.55954594    -0.72200
V135        V  0.84057046  0.82836007  0.47257293     1.35200
V136        V  0.83648168  0.82408549  0.55192245     1.35200
C137        C  0.83876087  0.89118076  0.52021150     0.77200
C138        C  0.83841376  0.76126684  0.50462258     0.77300
C139        C  0.77349736  0.82785409  0.50541084     0.77100
C140        C  0.90369930  0.82513227  0.51900877     0.77100
O141        O  0.83602412  0.10808285  0.05442864    -0.72000
O142        O  0.82934661  0.20502382  0.06637583    -0.72300
O143        O  0.78413252  0.15275346  0.06074053    -0.72100
O144        O  0.88136062  0.16006424  0.06010775    -0.72100
O145        O  0.88111915  0.16170830  0.97699207    -0.72100
O146        O  0.78364555  0.16083095  0.97841861    -0.72100
O147        O  0.83253610  0.20954274  0.98353386    -0.72000
O148        O  0.83274559  0.11276710  0.97171338    -0.72200
V149        V  0.83270656  0.15660258  0.05887306     1.35200
V150        V  0.83244147  0.16109804  0.97927161     1.35200
C151        C  0.83501457  0.09384904  0.01093067     0.77200
C152        C  0.83088734  0.22382249  0.02687448     0.77300
C153        C  0.76725458  0.15582936  0.01970659     0.77100
C154        C  0.89791083  0.16177094  0.01836645     0.77100
O155        O  0.83262844  0.10884371  0.54822111    -0.72000
O156        O  0.82734551  0.20542255  0.56311234    -0.72300
O157        O  0.78169804  0.15447314  0.55122409    -0.72100
O158        O  0.87856613  0.15947430  0.56034182    -0.72100
O159        O  0.88207625  0.16038055  0.47733521    -0.72100
O160        O  0.78477610  0.16595789  0.46984696    -0.72100
O161        O  0.83616619  0.21123806  0.48131959    -0.72000
O162        O  0.83098181  0.11478248  0.46555368    -0.72200
V163        V  0.83014682  0.15719980  0.55421772     1.35200
V164        V  0.83341527  0.16295921  0.47498657     1.35200
C165        C  0.83184603  0.09527014  0.50426384     0.77200
C166        C  0.83169313  0.22480396  0.52474334     0.77300
C167        C  0.76667833  0.16014249  0.50926354     0.77100
C168        C  0.89696823  0.15988635  0.52034828     0.77100
O169        O  0.16406048  0.12278450  0.00553692    -0.72000
O170        O  0.16907317  0.22004598  0.00903488    -0.72300
O171        O  0.11761438  0.17355371  0.00950938    -0.72100
O172        O  0.21501812  0.16879688  0.00493829    -0.72100
O173        O  0.21350496  0.17529167  0.92227794    -0.72100
O174        O  0.11621980  0.17102830  0.92647821    -0.72100
O175        O  0.16267740  0.22172243  0.92638689    -0.72000
O176        O  0.16664261  0.12422727  0.92248030    -0.72200
V177        V  0.16635062  0.17138960  0.00570864     1.35200
V178        V  0.16482719  0.17299185  0.92593535     1.35200
C179        C  0.16542899  0.10681016  0.96346028     0.77200
C180        C  0.16602017  0.23744769  0.96839316     0.77300
C181        C  0.10022619  0.17227199  0.96867153     0.77100
C182        C  0.23084423  0.17197740  0.96283940     0.77100
O183        O  0.16445603  0.10952388  0.53783450    -0.72000
O184        O  0.16560193  0.20725132  0.54492368    -0.72300
O185        O  0.11618752  0.15897862  0.53744580    -0.72100
O186        O  0.21339693  0.15773655  0.54563174    -0.72100
O187        O  0.21656229  0.16558246  0.46336919    -0.72100
O188        O  0.11969715  0.15717788  0.45448944    -0.72100
O189        O  0.16367618  0.20963672  0.46181973    -0.72000
O190        O  0.17240962  0.11290260  0.45565548    -0.72200
V191        V  0.16490479  0.15843780  0.53997802     1.35200
V192        V  0.16803849  0.16122249  0.46039958     1.35200
C193        C  0.16936819  0.09454306  0.49541916     0.77200
C194        C  0.16408428  0.22503551  0.50435116     0.77300
C195        C  0.10129274  0.15772438  0.49448489     0.77100
C196        C  0.23157767  0.16226997  0.50599072     0.77100
O197        O  0.17122474  0.88693267  0.96449528    -0.72000
O198        O  0.16542095  0.78962320  0.96510538    -0.72300
O199        O  0.12005777  0.84074093  0.97192322    -0.72100
O200        O  0.21724938  0.83543497  0.95826539    -0.72100
O201        O  0.22192785  0.84017404  0.04086479    -0.72100
O202        O  0.12538305  0.83635883  0.05442398    -0.72100
O203        O  0.17539269  0.78928729  0.04693794    -0.72000
O204        O  0.17208142  0.88683844  0.04763094    -0.72200
V205        V  0.16866395  0.83821901  0.96642835     1.35200
V206        V  0.17358500  0.83813131  0.04589320     1.35200
C207        C  0.17171564  0.90359559  0.00604784     0.77200
C208        C  0.16988624  0.77284082  0.00598481     0.77300
C209        C  0.10613780  0.83850422  0.01571102     0.77100
C210        C  0.23613481  0.83781714  0.99749217     0.77100
O211        O  0.12242556  0.82072314  0.53888105    -0.72000
O212        O  0.21923217  0.82208823  0.55203409    -0.72300
O213        O  0.16965439  0.86998913  0.55298295    -0.72100
O214        O  0.17227535  0.77309233  0.53777806    -0.72100
O215        O  0.17593079  0.77898849  0.45511280    -0.72100
O216        O  0.17570758  0.87594491  0.47076483    -0.72100
O217        O  0.22455403  0.82769982  0.46956873    -0.72000
O218        O  0.12734638  0.82768360  0.45667118    -0.72200
V219        V  0.17096885  0.82160027  0.54377375     1.35200
V220        V  0.17581787  0.82741218  0.46459937     1.35200
C221        C  0.10826726  0.82426475  0.49568193     0.77200
C222        C  0.23842090  0.82510937  0.51318473     0.77300
C223        C  0.17238324  0.88957058  0.51445565     0.77100
C224        C  0.17439358  0.75958226  0.49390451     0.77100
C225        C  0.17179370  0.05662143  0.49178858    -0.05500
C226        C  0.18026483  0.04132369  0.44466765    -0.05400
C227        C  0.18254730  0.00577608  0.44008643    -0.23600
C228        C  0.17629980  0.98462072  0.48250825     0.18600
C229        C  0.16802582  0.99951654  0.53028612     0.15800
C230        C  0.16588053  0.03542788  0.53469904    -0.18600
C231        C  0.16187463  0.97816860  0.57266610    -0.20400
C232        C  0.16361922  0.94250287  0.56763855    -0.13000
C233        C  0.17146204  0.92742216  0.52012721     0.03700
C234        C  0.17796121  0.94881309  0.47773635    -0.25100
H235        H  0.18517158  0.05689780  0.41105575     0.08700
H236        H  0.18904528  0.99482529  0.40321254     0.12300
H237        H  0.15940943  0.04679575  0.57130951     0.12300
H238        H  0.15553358  0.98903451  0.60964885     0.12000
H239        H  0.15848622  0.92668880  0.60092626     0.12600
H240        H  0.18418094  0.93762690  0.44089508     0.14500
C241        C  0.16586291  0.06877649  0.96250975    -0.05500
C242        C  0.16300221  0.05089462  0.91599891    -0.05400
C243        C  0.16363463  0.01505022  0.91511620    -0.23600
C244        C  0.16732353  0.99634984  0.96072657     0.18600
C245        C  0.17029239  0.01404554  0.00768579     0.15800
C246        C  0.16944451  0.05002921  0.00830472    -0.18600
C247        C  0.17407369  0.99545022  0.05330536    -0.20400
C248        C  0.17469149  0.95966274  0.05254542    -0.13000
C249        C  0.17161528  0.94165537  0.00616853     0.03700
C250        C  0.16804655  0.96030581  0.96022824    -0.25100
H251        H  0.16016448  0.06463871  0.88020203     0.08700
H252        H  0.16128626  0.00196234  0.87872820     0.12300
H253        H  0.17180510  0.06341635  0.04447001     0.12300
H254        H  0.17647081  0.00858429  0.08965285     0.12000
H255        H  0.17754860  0.94604906  0.08844929     0.12600
H256        H  0.16561491  0.94682545  0.92415679     0.14500
C257        C  0.93486752  0.15981161  0.52398616    -0.05500
C258        C  0.95090872  0.16191519  0.57205021    -0.05400
C259        C  0.98660524  0.16187365  0.57589945    -0.23600
C260        C  0.00701882  0.15961124  0.53174928     0.18600
C261        C  0.99122166  0.15745257  0.48321133     0.15800
C262        C  0.95531268  0.15762310  0.47961515    -0.18600
C263        C  0.01162770  0.15516047  0.43906419    -0.20400
C264        C  0.04732250  0.15508401  0.44289678    -0.13000
C265        C  0.06337913  0.15726692  0.49093468     0.03700
C266        C  0.04293376  0.15949981  0.53532211    -0.25100
H267        H  0.93582916  0.16368784  0.60684157     0.08700
H268        H  0.99823571  0.16358344  0.61343597     0.12300
H269        H  0.94333082  0.15594271  0.44230736     0.12300
H270        H  0.99999072  0.15347356  0.40153085     0.12000
H271        H  0.06239014  0.15337399  0.40809130     0.12600
H272        H  0.05491720  0.16127995  0.57262004     0.14500
C273        C  0.06220389  0.17193497  0.96988487    -0.05500
C274        C  0.04356415  0.17364915  0.92393182    -0.05400
C275        C  0.00778999  0.17242843  0.92435344    -0.23600
C276        C  0.98985696  0.16929397  0.97074828     0.18600
C277        C  0.00821461  0.16783225  0.01727217     0.15800
C278        C  0.04422617  0.16929855  0.01658913    -0.18600
C279        C  0.99021631  0.16464053  0.06364371    -0.20400
C280        C  0.95443203  0.16270983  0.06393215    -0.13000
C281        C  0.93588352  0.16393639  0.01787908     0.03700
C282        C  0.95390332  0.16737503  0.97133149    -0.25100
H283        H  0.05667314  0.17582388  0.88743515     0.08700
H284        H  0.99415936  0.17368383  0.88831139     0.12300
H285        H  0.05821572  0.16793836  0.05232270     0.12300
H286        H  0.00381732  0.16349543  0.09971190     0.12000
H287        H  0.94126382  0.16014502  0.10032041     0.12600
H288        H  0.93999574  0.16847187  0.93549815     0.14500
C289        C  0.94160671  0.82414363  0.52290896    -0.05500
C290        C  0.95736820  0.81922556  0.57070013    -0.05400
C291        C  0.99303121  0.81811634  0.57475221    -0.23600
C292        C  0.01370963  0.82185782  0.53106774     0.18600
C293        C  0.99824877  0.82675494  0.48275251     0.15800
C294        C  0.96234435  0.82789685  0.47896609    -0.18600
C295        C  0.01899644  0.83044637  0.43908342    -0.20400
C296        C  0.05469696  0.82942554  0.44325393    -0.13000
C297        C  0.07038235  0.82470242  0.49115841     0.03700
C298        C  0.04957449  0.82085678  0.53496112    -0.25100
H299        H  0.94209510  0.81623650  0.60513161     0.08700
H300        H  0.00443914  0.81433064  0.61211098     0.12300
H301        H  0.95059609  0.83164886  0.44182021     0.12300
H302        H  0.00762203  0.83420240  0.40169494     0.12000
H303        H  0.07005056  0.83248277  0.40891204     0.12600
H304        H  0.06125045  0.81720123  0.57217881     0.14500
C305        C  0.83791765  0.92889100  0.52534964    -0.05500
C306        C  0.83881371  0.94398387  0.57419893    -0.05400
C307        C  0.83749999  0.97949218  0.57969895    -0.23600
C308        C  0.83525389  0.00062220  0.53643566     0.18600
C309        C  0.83424860  0.98580595  0.48708652     0.15800
C310        C  0.83560139  0.95004751  0.48183183    -0.18600
C311        C  0.83195838  0.00703994  0.44386963    -0.20400
C312        C  0.83096214  0.04261578  0.44947763    -0.13000
C313        C  0.83218366  0.05759867  0.49838563     0.03700
C314        C  0.83415118  0.03632622  0.54176748    -0.25100
H315        H  0.84049257  0.92830539  0.60835586     0.08700
H316        H  0.83826413  0.99041781  0.61780732     0.12300
H317        H  0.83475693  0.93874521  0.44395791     0.12300
H318        H  0.83108410  0.99615700  0.40574329     0.12000
H319        H  0.82937395  0.05842004  0.41544132     0.12600
H320        H  0.83506632  0.04751689  0.57971608     0.14500
C321        C  0.93941161  0.82937306  0.99852905    -0.05500
C322        C  0.95391692  0.83114397  0.94917845    -0.05400
C323        C  0.98935502  0.83398888  0.94259710    -0.23600
C324        C  0.01102571  0.83509371  0.98526246     0.18600
C325        C  0.99673129  0.83355289  0.03506370     0.15800
C326        C  0.96109524  0.83072836  0.04138974    -0.18600
C327        C  0.01834359  0.83465737  0.07775667    -0.20400
C328        C  0.05379889  0.83671972  0.07123226    -0.13000
C329        C  0.06840327  0.83784402  0.02191086     0.03700
C330        C  0.04673302  0.83735929  0.97897474    -0.25100
H331        H  0.93783099  0.83033624  0.91548460     0.08700
H332        H  0.99980259  0.83519886  0.90413773     0.12300
H333        H  0.95029500  0.82956479  0.07965632     0.12300
H334        H  0.00786062  0.83361757  0.11620511     0.12000
H335        H  0.06984247  0.83716044  0.10499008     0.12600
H336        H  0.05761594  0.83822418  0.94074490     0.14500
C337        C  0.83640124  0.92709900  0.03260665    -0.05500
C338        C  0.83476485  0.94200725  0.08155531    -0.05400
C339        C  0.83449813  0.97760982  0.08722247    -0.23600
C340        C  0.83590707  0.99898490  0.04403033     0.18600
C341        C  0.83776642  0.98425783  0.99466855     0.15800
C342        C  0.83801529  0.94850725  0.98927996    -0.18600
C343        C  0.83916312  0.00553455  0.95143535    -0.20400
C344        C  0.83838224  0.04108192  0.95693731    -0.13000
C345        C  0.83634030  0.05610070  0.00577315     0.03700
C346        C  0.83530063  0.03479378  0.04929909    -0.25100
H347        H  0.83353046  0.92612382  0.11556225     0.08700
H348        H  0.83307768  0.98841300  0.12537793     0.12300
H349        H  0.83940766  0.93738967  0.95130292     0.12300
H350        H  0.84068133  0.99468714  0.91331289     0.12000
H351        H  0.83935327  0.05685357  0.92279733     0.12600
H352        H  0.83371197  0.04601462  0.08718796     0.14500
C353        C  0.14776452  0.59601090  0.46217524    -0.05500
C354        C  0.12078651  0.61464515  0.44022179    -0.05400
C355        C  0.12148464  0.65048529  0.43946753    -0.23600
C356        C  0.14879695  0.66840947  0.46178400     0.18600
C357        C  0.17594918  0.64990165  0.48438133     0.15800
C358        C  0.17555091  0.61389560  0.48359560    -0.18600
C359        C  0.20261678  0.66773336  0.50851988    -0.20400
C360        C  0.20202572  0.70348408  0.51126746    -0.13000
C361        C  0.17538261  0.72204340  0.48857387     0.03700
C362        C  0.14905104  0.70445785  0.46311465    -0.25100
H363        H  0.09919695  0.60144679  0.42331410     0.08700
H364        H  0.10036929  0.66419068  0.42216809     0.12300
H365        H  0.19636551  0.59979386  0.50106116     0.12300
H366        H  0.22356028  0.65399904  0.52623494     0.12000
H367        H  0.22244473  0.71675193  0.53107526     0.12600
H368        H  0.12821558  0.71878662  0.44611406     0.14500
C369        C  0.16319628  0.26285038  0.50604054    -0.05500
C370        C  0.18485169  0.28094441  0.53924530    -0.05400
C371        C  0.18579462  0.31679699  0.53828789    -0.23600
C372        C  0.16435171  0.33516732  0.50510671     0.18600
C373        C  0.14151049  0.31713113  0.47295231     0.15800
C374        C  0.14157639  0.28111561  0.47290017    -0.18600
C375        C  0.11898235  0.33544642  0.44144824    -0.20400
C376        C  0.11920321  0.37127139  0.44148718    -0.13000
C377        C  0.14258978  0.38945616  0.47188426     0.03700
C378        C  0.16522527  0.37120559  0.50359543    -0.25100
H379        H  0.20178958  0.26728185  0.56485628     0.08700
H380        H  0.20328290  0.33015360  0.56350858     0.12300
H381        H  0.12456690  0.26724635  0.44750663     0.12300
H382        H  0.10109996  0.32206120  0.41688072     0.12000
H383        H  0.10157611  0.38483061  0.41682071     0.12600
H384        H  0.18305477  0.38507592  0.52768742     0.14500
C385        C  0.16866649  0.73499506  0.00564382    -0.05500
C386        C  0.19282901  0.71599825  0.03329277    -0.05400
C387        C  0.19269128  0.68017681  0.03134917    -0.23600
C388        C  0.16774748  0.66270282  0.00285623     0.18600
C389        C  0.14252189  0.68160164  0.97639233     0.15800
C390        C  0.14353635  0.71763209  0.97715592    -0.18600
C391        C  0.11670806  0.66410203  0.94975658    -0.20400
C392        C  0.11610055  0.62826233  0.94884829    -0.13000
C393        C  0.14172895  0.60922178  0.97349011     0.03700
C394        C  0.16752337  0.62669400  0.00051776    -0.25100
H395        H  0.21236322  0.72894426  0.05541527     0.08700
H396        H  0.21205529  0.66613890  0.05222382     0.12300
H397        H  0.12451941  0.73218861  0.95627695     0.12300
H398        H  0.09695093  0.67812710  0.92968588     0.12000
H399        H  0.09592339  0.61539130  0.92794266     0.12600
H400        H  0.18711263  0.61225161  0.02032602     0.14500
C401        C  0.14021812  0.40252736  0.96056626    -0.05500
C402        C  0.11133829  0.38517490  0.94159222    -0.05400
C403        C  0.11095480  0.34942830  0.93803682    -0.23600
C404        C  0.13921261  0.33023519  0.95429906     0.18600
C405        C  0.16814895  0.34733795  0.97446185     0.15800
C406        C  0.16865915  0.38333512  0.97677406    -0.18600
C407        C  0.19592552  0.32808941  0.99247938    -0.20400
C408        C  0.19494085  0.29228845  0.99092065    -0.13000
C409        C  0.16664794  0.27517545  0.97001346     0.03700
C410        C  0.13892596  0.29424939  0.95129788    -0.25100
H411        H  0.08912434  0.39931501  0.92883950     0.08700
H412        H  0.08845173  0.33678268  0.92283298     0.12300
H413        H  0.19096442  0.39636747  0.99194981     0.12300
H414        H  0.21825979  0.34070927  0.00826264     0.12000
H415        H  0.21650845  0.27788144  0.00540960     0.12600
H416        H  0.11688507  0.28102531  0.93560248     0.14500
C417        C  0.15150502  0.50716511  0.81328463    -0.05500
C418        C  0.18431680  0.50805938  0.79092522    -0.05400
C419        C  0.18842258  0.50605314  0.73777703    -0.23600
C420        C  0.15977810  0.50303044  0.70587012     0.18600
C421        C  0.12664195  0.50240420  0.72783332     0.15800
C422        C  0.12269910  0.50455170  0.78128596    -0.18600
C423        C  0.09798785  0.49938549  0.69597083    -0.20400
C424        C  0.10208974  0.49695298  0.64289285    -0.13000
C425        C  0.13490685  0.49744226  0.62052980     0.03700
C426        C  0.16372162  0.50051778  0.65243166    -0.25100
H427        H  0.20695334  0.51003029  0.81460749     0.08700
H428        H  0.21400874  0.50663178  0.72168406     0.12300
H429        H  0.09725829  0.50375437  0.79792749     0.12300
H430        H  0.07240391  0.49886372  0.71207568     0.12000
H431        H  0.07944361  0.49467061  0.61929063     0.12600
H432        H  0.18916073  0.50103897  0.63576384     0.14500
C433        C  0.13189482  0.50121735  0.12098289    -0.05500
C434        C  0.09976043  0.50344878  0.14512644    -0.05400
C435        C  0.09700681  0.50154390  0.19852124    -0.23600
C436        C  0.12634940  0.49729576  0.22874309     0.18600
C437        C  0.15876596  0.49492176  0.20490336     0.15800
C438        C  0.16133090  0.49691796  0.15131066    -0.18600
C439        C  0.18811615  0.49070176  0.23508737    -0.20400
C440        C  0.18543561  0.48913360  0.28849337    -0.13000
C441        C  0.15336169  0.49164407  0.31271335     0.03700
C442        C  0.12384379  0.49556891  0.28238473    -0.25100
H443        H  0.07670908  0.50676133  0.12272368     0.08700
H444        H  0.07194337  0.50343411  0.21616441     0.12300
H445        H  0.18628366  0.49507357  0.13326999     0.12300
H446        H  0.21316785  0.48879954  0.21741620     0.12000
H447        H  0.20853415  0.48612576  0.31087286     0.12600
H448        H  0.09892266  0.49763803  0.30047512     0.14500
C449        C  0.26937544  0.16356982  0.50946621    -0.05500
C450        C  0.28624369  0.14876837  0.55148799    -0.05400
C451        C  0.32198963  0.14927481  0.55449626    -0.23600
C452        C  0.34150113  0.16522547  0.51603425     0.18600
C453        C  0.32472574  0.18106341  0.47432030     0.15800
C454        C  0.28885286  0.17966972  0.47091683    -0.18600
C455        C  0.34413371  0.19818471  0.43685146    -0.20400
C456        C  0.37980859  0.19951253  0.44055146    -0.13000
C457        C  0.39666118  0.18297527  0.48092500     0.03700
C458        C  0.37745801  0.16573308  0.51855480    -0.25100
H459        H  0.27177227  0.13627540  0.58168839     0.08700
H460        H  0.33436236  0.13727030  0.58697305     0.12300
H461        H  0.27606994  0.19155347  0.43867455     0.12300
H462        H  0.33172258  0.21063837  0.40479384     0.12000
H463        H  0.39437664  0.21280477  0.41121724     0.12600
H464        H  0.39050346  0.15320801  0.55002451     0.14500
C465        C  0.60257168  0.18430488  0.48153352    -0.05500
C466        C  0.62059539  0.20998839  0.45494799    -0.05400
C467        C  0.65642327  0.20964067  0.45298908    -0.23600
C468        C  0.67482934  0.18412336  0.47882565     0.18600
C469        C  0.65681365  0.15865117  0.50666444     0.15800
C470        C  0.62086795  0.15852543  0.50697124    -0.18600
C471        C  0.67504710  0.13402426  0.53444352    -0.20400
C472        C  0.71078021  0.13478802  0.53516042    -0.13000
C473        C  0.72895735  0.15949348  0.50688634     0.03700
C474        C  0.71087412  0.18392987  0.47818859    -0.25100
H475        H  0.60690513  0.23000994  0.43493638     0.08700
H476        H  0.66972789  0.22951520  0.43173800     0.12300
H477        H  0.60710194  0.13884609  0.52803390     0.12300
H478        H  0.66166526  0.11447169  0.55625071     0.12000
H479        H  0.72433209  0.11579050  0.55748879     0.12600
H480        H  0.72482492  0.20336809  0.45690013     0.14500
C481        C  0.39588792  0.15038168  0.98496223    -0.05500
C482        C  0.37856723  0.12404378  0.01113573    -0.05400
C483        C  0.34273419  0.12330374  0.01289429    -0.23600
C484        C  0.32358712  0.14838028  0.98729414     0.18600
C485        C  0.34081695  0.17429680  0.95931387     0.15800
C486        C  0.37680104  0.17550172  0.95916593    -0.18600
C487        C  0.32174193  0.19844730  0.93172394    -0.20400
C488        C  0.28595331  0.19708969  0.93205252    -0.13000
C489        C  0.26862050  0.17223971  0.96117419     0.03700
C490        C  0.28756069  0.14795123  0.98891044    -0.25100
H491        H  0.39279864  0.10443218  0.03118931     0.08700
H492        H  0.32999711  0.10304306  0.03412458     0.12300
H493        H  0.38999489  0.19563445  0.93823656     0.12300
H494        H  0.33450786  0.21831124  0.90970989     0.12000
H495        H  0.27172333  0.21598635  0.91050469     0.12600
H496        H  0.27423069  0.12842801  0.01092323     0.14500
C497        C  0.72938329  0.15314864  0.01995935    -0.05500
C498        C  0.71244490  0.13501768  0.05917164    -0.05400
C499        C  0.67679499  0.13132153  0.05877393    -0.23600
C500        C  0.65730522  0.14635002  0.01974845     0.18600
C501        C  0.67400139  0.16548657  0.98089508     0.15800
C502        C  0.70991918  0.16828033  0.98079222    -0.18600
C503        C  0.65443383  0.18177020  0.94308344    -0.20400
C504        C  0.61870532  0.17928559  0.94387388    -0.13000
C505        C  0.60200399  0.15962878  0.98146401     0.03700
C506        C  0.62141726  0.14295177  0.01916564    -0.25100
H507        H  0.72687746  0.12310701  0.08970414     0.08700
H508        H  0.66445582  0.11681964  0.08913462     0.12300
H509        H  0.72269010  0.18265911  0.95067552     0.12300
H510        H  0.66674074  0.19674669  0.91322040     0.12000
H511        H  0.60404068  0.19237514  0.91468878     0.12600
H512        H  0.60850255  0.12818717  0.04874079     0.14500
C513        C  0.49922767  0.18392481  0.63825793    -0.05500
C514        C  0.50140146  0.21494913  0.66533233    -0.05400
C515        C  0.50151512  0.21526193  0.71893562    -0.23600
C516        C  0.49941209  0.18453409  0.74667541     0.18600
C517        C  0.49714178  0.15315482  0.72002381     0.15800
C518        C  0.49706600  0.15302798  0.66607821    -0.18600
C519        C  0.49507909  0.12243039  0.74782768    -0.20400
C520        C  0.49545351  0.12276710  0.80146238    -0.13000
C521        C  0.49776103  0.15381781  0.82845863     0.03700
C522        C  0.49962892  0.18468635  0.80058427    -0.25100
H523        H  0.50313311  0.23910153  0.64502614     0.08700
H524        H  0.50329664  0.23956033  0.73868595     0.12300
H525        H  0.49532752  0.12889363  0.64583641     0.12300
H526        H  0.49326514  0.09812201  0.72810983     0.12000
H527        H  0.49386905  0.09863341  0.82185004     0.12600
H528        H  0.50144721  0.20883541  0.82076962     0.14500
C529        C  0.50015640  0.18403441  0.32844993    -0.05500
C530        C  0.49891542  0.21526760  0.30156838    -0.05400
C531        C  0.49896217  0.21591068  0.24798128    -0.23600
C532        C  0.50025861  0.18530937  0.22005346     0.18600
C533        C  0.50178982  0.15375576  0.24656818     0.15800
C534        C  0.50173082  0.15329567  0.30048728    -0.18600
C535        C  0.50318757  0.12315559  0.21867659    -0.20400
C536        C  0.50274249  0.12375306  0.16511544    -0.13000
C537        C  0.50091507  0.15493994  0.13819595     0.03700
C538        C  0.49986510  0.18572928  0.16611840    -0.25100
H539        H  0.49776813  0.23935003  0.32201256     0.08700
H540        H  0.49785012  0.24034975  0.22840676     0.12300
H541        H  0.50281771  0.12903411  0.32059147     0.12300
H542        H  0.50447180  0.09873091  0.23826668     0.12000
H543        H  0.50371755  0.09964502  0.14472106     0.12600
H544        H  0.49857036  0.20996832  0.14598411     0.14500
C545        C  0.84208265  0.39050089  0.50442687    -0.05500
C546        C  0.86437838  0.37533151  0.46891960    -0.05400
C547        C  0.86684737  0.33971388  0.46577363    -0.23600
C548        C  0.84775066  0.31886210  0.49914341     0.18600
C549        C  0.82630567  0.33408472  0.53644008     0.15800
C550        C  0.82312004  0.36982686  0.53817717    -0.18600
C551        C  0.80837022  0.31328055  0.57123744    -0.20400
C552        C  0.81103114  0.27767002  0.56841631    -0.13000
C553        C  0.83104646  0.26233428  0.53007965     0.03700
C554        C  0.84957274  0.28307928  0.49573127    -0.25100
H555        H  0.87924866  0.39107552  0.44281119     0.08700
H556        H  0.88365183  0.32849094  0.43729221     0.12300
H557        H  0.80632517  0.38162766  0.56618466     0.12300
H558        H  0.79213497  0.32453669  0.60041192     0.12000
H559        H  0.79660838  0.26206390  0.59523926     0.12600
H560        H  0.86546429  0.27135272  0.46649840     0.14500
C561        C  0.83994644  0.72366363  0.50039066    -0.05500
C562        C  0.86333465  0.70852323  0.46639325    -0.05400
C563        C  0.86605450  0.67293869  0.46325828    -0.23600
C564        C  0.84472182  0.65188678  0.49306074     0.18600
C565        C  0.82037289  0.66688096  0.52636811     0.15800
C566        C  0.81862307  0.70271200  0.53060164    -0.18600
C567        C  0.79806560  0.64574454  0.55449793    -0.20400
C568        C  0.79989015  0.61012560  0.54969730    -0.13000
C569        C  0.82466214  0.59508687  0.51786982     0.03700
C570        C  0.84715666  0.61610697  0.48983162    -0.25100
H571        H  0.88007892  0.72430023  0.44301361     0.08700
H572        H  0.88469918  0.66189110  0.43731445     0.12300
H573        H  0.80030219  0.71431015  0.55656316     0.12300
H574        H  0.77910397  0.65675157  0.57995520     0.12000
H575        H  0.78244795  0.59425375  0.57174793     0.12600
H576        H  0.86610625  0.60458202  0.46481376     0.14500
C577        C  0.83160039  0.26152417  0.03080202    -0.05500
C578        C  0.81522285  0.27840739  0.07148481    -0.05400
C579        C  0.81569848  0.31419965  0.07438978    -0.23600
C580        C  0.83337448  0.33358374  0.03740482     0.18600
C581        C  0.85082354  0.31666036  0.99723932     0.15800
C582        C  0.84928375  0.28085892  0.99370860    -0.18600
C583        C  0.86980675  0.33580718  0.96153103    -0.20400
C584        C  0.87149938  0.37143425  0.96550115    -0.13000
C585        C  0.85343688  0.38851856  0.00425391     0.03700
C586        C  0.83420533  0.36952887  0.04001212    -0.25100
H587        H  0.80157138  0.26392410  0.10052611     0.08700
H588        H  0.80245312  0.32670032  0.10572330     0.12300
H589        H  0.86248599  0.26795060  0.96266142     0.12300
H590        H  0.88352132  0.32321216  0.93073421     0.12000
H591        H  0.88633339  0.38578038  0.93761262     0.12600
H592        H  0.82052969  0.38271240  0.07032883     0.14500
C593        C  0.85790453  0.59397904  0.01791000    -0.05500
C594        C  0.87843959  0.60993456  0.05491060    -0.05400
C595        C  0.87806532  0.64552125  0.06052965    -0.23600
C596        C  0.85784737  0.66580523  0.02822759     0.18600
C597        C  0.83788729  0.65001391  0.98976467     0.15800
C598        C  0.83752559  0.61413013  0.98551103    -0.18600
C599        C  0.81877849  0.67042366  0.95614506    -0.20400
C600        C  0.81923773  0.70610388  0.96077600    -0.13000
C601        C  0.83813915  0.72196567  0.99983955     0.03700
C602        C  0.85738189  0.70159608  0.03355110    -0.25100
H603        H  0.89417227  0.59473958  0.08032352     0.08700
H604        H  0.89368154  0.65718388  0.09001298     0.12300
H605        H  0.82187849  0.60188923  0.95654776     0.12300
H606        H  0.80355970  0.65880189  0.92616521     0.12000
H607        H  0.80424969  0.72130815  0.93440054     0.12600
H608        H  0.87240337  0.71364685  0.06341519     0.14500
C609        C  0.83387359  0.48790312  0.66465337    -0.05500
C610        C  0.80361578  0.47825746  0.69039393    -0.05400
C611        C  0.80221340  0.47722553  0.74381822    -0.23600
C612        C  0.83102727  0.48596279  0.77278827     0.18600
C613        C  0.86176463  0.49533762  0.74750240     0.15800
C614        C  0.86306692  0.49613535  0.69358224    -0.18600
C615        C  0.89058853  0.50395651  0.77665522    -0.20400
C616        C  0.88896666  0.50331123  0.83019205    -0.13000
C617        C  0.85846771  0.49421855  0.85573428     0.03700
C618        C  0.82952642  0.48556001  0.82661142    -0.25100
H619        H  0.78079559  0.47153855  0.66914455     0.08700
H620        H  0.77850796  0.46980974  0.76245048     0.12300
H621        H  0.88653525  0.50359402  0.67428199     0.12300
H622        H  0.91436614  0.51121829  0.75809885     0.12000
H623        H  0.91166086  0.51012055  0.85167297     0.12600
H624        H  0.80593337  0.47830830  0.84575351     0.14500
C625        C  0.82992356  0.49454606  0.35567734    -0.05500
C626        C  0.79834447  0.49655511  0.33008272    -0.05400
C627        C  0.79688698  0.49576905  0.27654336    -0.23600
C628        C  0.82698292  0.49274545  0.24747660     0.18600
C629        C  0.85884665  0.49050965  0.27281939     0.15800
C630        C  0.86013847  0.49157725  0.32659776    -0.18600
C631        C  0.88893935  0.48718418  0.24395490    -0.20400
C632        C  0.88758444  0.48637930  0.19052501    -0.13000
C633        C  0.85613394  0.48896685  0.16469146     0.03700
C634        C  0.82580166  0.49200543  0.19358175    -0.25100
H635        H  0.77465930  0.49877431  0.35150203     0.08700
H636        H  0.77220818  0.49745719  0.25789993     0.12300
H637        H  0.88464089  0.48975469  0.34576922     0.12300
H638        H  0.91357632  0.48532280  0.26268686     0.12000
H639        H  0.91135753  0.48400716  0.16936463     0.12600
H640        H  0.80137360  0.49396045  0.17423645     0.14500
C641        C  0.40359682  0.85114449  0.50973271    -0.05500
C642        C  0.38808344  0.87093271  0.47140470    -0.05400
C643        C  0.35278735  0.86878182  0.46301707    -0.23600
C644        C  0.33227990  0.84753977  0.49388358     0.18600
C645        C  0.34760900  0.82830223  0.53362813     0.15800
C646        C  0.38327634  0.82967566  0.54058820    -0.18600
C647        C  0.32694540  0.80827070  0.56596947    -0.20400
C648        C  0.29145933  0.80740680  0.55921117    -0.13000
C649        C  0.27605593  0.82575957  0.51913720     0.03700
C650        C  0.29668794  0.84556854  0.48621230    -0.25100
H651        H  0.40347472  0.88740856  0.44704939     0.08700
H652        H  0.34150901  0.88387775  0.43259132     0.12300
H653        H  0.39518872  0.81453354  0.57045689     0.12300
H654        H  0.33818105  0.79357842  0.59687266     0.12000
H655        H  0.27600146  0.79205429  0.58506153     0.12600
H656        H  0.28492035  0.86022742  0.45569066     0.14500
C657        C  0.60922836  0.85509647  0.52523651    -0.05500
C658        C  0.62690886  0.87757133  0.55777552    -0.05400
C659        C  0.66267974  0.87659279  0.56069677    -0.23600
C660        C  0.68138883  0.85369565  0.53015924     0.18600
C661        C  0.66385957  0.83209095  0.49556690     0.15800
C662        C  0.62791362  0.83254554  0.49395788    -0.18600
C663        C  0.68259845  0.81032542  0.46330043    -0.20400
C664        C  0.71835068  0.80954934  0.46580040    -0.13000
C665        C  0.73587197  0.82978242  0.50155844     0.03700
C666        C  0.71726707  0.85192871  0.53360144    -0.25100
H667        H  0.61297782  0.89523061  0.58199862     0.08700
H668        H  0.67570367  0.89365157  0.58698224     0.12300
H669        H  0.61444278  0.81553583  0.46806548     0.12300
H670        H  0.66959467  0.79386845  0.43615439     0.12000
H671        H  0.73232199  0.79248733  0.44068099     0.12600
H672        H  0.73078610  0.86807162  0.56065528     0.14500
C673        C  0.27386506  0.83789470  0.99363025    -0.05500
C674        C  0.29080466  0.81708015  0.95789790    -0.05400
C675        C  0.32662715  0.81536524  0.95725077    -0.23600
C676        C  0.34604371  0.83511058  0.99150692     0.18600
C677        C  0.32913799  0.85715493  0.02620787     0.15800
C678        C  0.29322018  0.85796798  0.02758458    -0.18600
C679        C  0.34843832  0.87799160  0.05900766    -0.20400
C680        C  0.38418942  0.87687287  0.05773614    -0.13000
C681        C  0.40124589  0.85426602  0.02466426     0.03700
C682        C  0.38201397  0.83333872  0.99162949    -0.25100
H683        H  0.27629215  0.80136487  0.93156072     0.08700
H684        H  0.33913506  0.79854518  0.93007221     0.12300
H685        H  0.28025823  0.87439451  0.05489036     0.12300
H686        H  0.33588409  0.89524727  0.08552403     0.12000
H687        H  0.39856987  0.89326370  0.08331895     0.12600
H688        H  0.39506905  0.81623536  0.96539808     0.14500
C689        C  0.73432490  0.82415862  0.03230353    -0.05500
C690        C  0.71743986  0.80219416  0.06680007    -0.05400
C691        C  0.68161980  0.80219439  0.07031014    -0.23600
C692        C  0.66219889  0.82485428  0.04039625     0.18600
C693        C  0.67917437  0.84790005  0.00698336     0.15800
C694        C  0.71498533  0.84695098  0.00249564    -0.18600
C695        C  0.66006817  0.87165230  0.97876401    -0.20400
C696        C  0.62443661  0.87251863  0.98332282    -0.13000
C697        C  0.60718126  0.84904160  0.01500704     0.03700
C698        C  0.62618829  0.82510140  0.04341030    -0.25100
H699        H  0.73192829  0.78449499  0.09014717     0.08700
H700        H  0.66911829  0.78455941  0.09652274     0.12300
H701        H  0.72791549  0.86436376  0.97635500     0.12300
H702        H  0.67270457  0.88968562  0.95330662     0.12000
H703        H  0.61021627  0.89110759  0.96117556     0.12600
H704        H  0.61299230  0.80720336  0.06848332     0.14500
C705        C  0.50320076  0.84392326  0.67484558    -0.05500
C706        C  0.51108602  0.81219100  0.69737041    -0.05400
C707        C  0.51186371  0.80846052  0.75056004    -0.23600
C708        C  0.50472727  0.83639494  0.78239182     0.18600
C709        C  0.49632414  0.86836466  0.76034144     0.15800
C710        C  0.49558192  0.87194334  0.70671778    -0.18600
C711        C  0.48920299  0.89627228  0.79235621    -0.20400
C712        C  0.49096906  0.89267753  0.84561089    -0.13000
C713        C  0.49965894  0.86107271  0.86788634     0.03700
C714        C  0.50619717  0.83291564  0.83588903    -0.25100
H715        H  0.51709530  0.79020360  0.67380090     0.08700
H716        H  0.51832778  0.78377725  0.76678003     0.12300
H717        H  0.48935363  0.89652329  0.68989229     0.12300
H718        H  0.48254735  0.92093239  0.77623532     0.12000
H719        H  0.48549694  0.91470106  0.86941114     0.12600
H720        H  0.51285192  0.80839641  0.85253898     0.14500
C721        C  0.51001522  0.86214047  0.36741818    -0.05500
C722        C  0.51479493  0.89424870  0.34402938    -0.05400
C723        C  0.51545476  0.89729840  0.29066735    -0.23600
C724        C  0.51123006  0.86828956  0.25971369     0.18600
C725        C  0.50657716  0.83585468  0.28280242     0.15800
C726        C  0.50607502  0.83297224  0.33640749    -0.18600
C727        C  0.50227752  0.80685359  0.25187648    -0.20400
C728        C  0.50233083  0.80997560  0.19852818    -0.13000
C729        C  0.50671427  0.84213014  0.17509701     0.03700
C730        C  0.51133274  0.87121776  0.20609179    -0.25100
H731        H  0.51795994  0.91709789  0.36701600     0.08700
H732        H  0.51908849  0.92235065  0.27363565     0.12300
H733        H  0.50235065  0.80805805  0.35390369     0.12300
H734        H  0.49869710  0.78179595  0.26892302     0.12000
H735        H  0.49874330  0.78717064  0.17558415     0.12600
H736        H  0.51477282  0.89616346  0.18857665     0.14500
loop_ 
_geom_bond_atom_site_label_1 
_geom_bond_atom_site_label_2 
_geom_bond_distance 
_geom_bond_site_symmetry_2 
_ccdc_geom_bond_type 
O1            V9   1.899   1_556  S
O1           C11   1.265       .  A
O2            V9   1.899       .  S
O2           C12   1.265       .  A
O3            V9   1.903       .  S
O3           C13   1.266       .  A
O4            V9   1.902       .  S
O4           C14   1.265       .  A
O5           V10   1.904       .  S
O5           C14   1.265       .  A
O6           V10   1.906       .  S
O6           C13   1.265       .  A
O7           V10   1.902       .  S
O7           C12   1.266       .  A
O8           V10   1.902   1_556  S
O8           C11   1.266       .  A
V9           V10   2.082       .  T
C11         C713   1.481       .  S
C12         C729   1.481       .  S
C13         C697   1.477       .  S
C14         C681   1.477       .  S
O15          V23   1.902       .  S
O15          C25   1.266       .  A
O16          V23   1.906       .  S
O16          C26   1.266       .  A
O17          V23   1.907       .  S
O17          C27   1.266       .  A
O18          V23   1.905       .  S
O18          C28   1.265       .  A
O19          V24   1.902       .  S
O19          C28   1.264       .  A
O20          V24   1.901       .  S
O20          C27   1.265       .  A
O21          V24   1.898       .  S
O21          C26   1.265       .  A
O22          V24   1.898       .  S
O22          C25   1.265       .  A
V23          V24   2.082       .  T
C25         C721   1.480       .  S
C26         C705   1.482       .  S
C27         C657   1.478       .  S
C28         C641   1.474       .  S
O29          V37   1.902       .  S
O29          C39   1.264       .  A
O30          V37   1.901       .  S
O30          C40   1.264       .  A
O31          V37   1.910       .  S
O31          C41   1.268       .  A
O32          V37   1.910   1_556  S
O32          C42   1.268       .  A
O33          V38   1.896   1_556  S
O33          C42   1.264       .  A
O34          V38   1.895       .  S
O34          C41   1.264       .  A
O35          V38   1.904       .  S
O35          C40   1.265       .  A
O36          V38   1.903       .  S
O36          C39   1.265       .  A
V37          V38   2.082       .  T
C39         C593   1.474       .  S
C40         C585   1.472       .  S
C41         C633   1.484       .  S
C42         C617   1.483       .  S
O43          V51   1.906       .  S
O43          C53   1.267       .  A
O44          V51   1.914       .  S
O44          C54   1.268       .  A
O45          V51   1.897       .  S
O45          C55   1.263       .  A
O46          V51   1.898       .  S
O46          C56   1.264       .  A
O47          V52   1.903       .  S
O47          C56   1.265       .  A
O48          V52   1.901       .  S
O48          C55   1.264       .  A
O49          V52   1.890       .  S
O49          C54   1.263       .  A
O50          V52   1.900       .  S
O50          C53   1.265       .  A
V51          V52   2.087       .  T
C53         C625   1.484       .  S
C54         C609   1.483       .  S
C55         C545   1.468       .  S
C56         C569   1.474       .  S
O57          V65   1.899   1_554  S
O57          C67   1.265       .  A
O58          V65   1.907       .  S
O58          C68   1.267       .  A
O59          V65   1.907       .  S
O59          C69   1.265       .  A
O60          V65   1.907       .  S
O60          C70   1.266       .  A
O61          V66   1.902       .  S
O61          C70   1.265       .  A
O62          V66   1.901       .  S
O62          C69   1.264       .  A
O63          V66   1.903       .  S
O63          C68   1.265       .  A
O64          V66   1.910   1_554  S
O64          C67   1.267       .  A
V65          V66   2.086       .  T
C67         C537   1.486       .  S
C68         C521   1.487       .  S
C69         C505   1.474       .  S
C70         C481   1.480       .  S
O71          V79   1.909       .  S
O71          C81   1.267       .  A
O72          V79   1.903       .  S
O72          C82   1.265       .  A
O73          V79   1.902       .  S
O73          C83   1.264       .  A
O74          V79   1.901       .  S
O74          C84   1.265       .  A
O75          V80   1.903       .  S
O75          C84   1.265       .  A
O76          V80   1.902       .  S
O76          C83   1.264       .  A
O77          V80   1.907       .  S
O77          C82   1.267       .  A
O78          V80   1.899       .  S
O78          C81   1.265       .  A
V79          V80   2.087       .  T
C81         C529   1.486       .  S
C82         C513   1.487       .  S
C83         C457   1.471       .  S
C84         C465   1.477       .  S
O85          V93   1.907       .  S
O85          C95   1.266       .  A
O86          V93   1.906       .  S
O86          C96   1.266       .  A
O87          V93   1.900       .  S
O87          C97   1.265       .  A
O88          V93   1.895   1_554  S
O88          C98   1.264       .  A
O89          V94   1.908   1_554  S
O89          C98   1.267       .  A
O90          V94   1.904       .  S
O90          C97   1.266       .  A
O91          V94   1.904       .  S
O91          C96   1.266       .  A
O92          V94   1.906       .  S
O92          C95   1.266       .  A
V93          V94   2.086       .  T
C95         C393   1.484       .  S
C96         C401   1.485       .  S
C97         C417   1.484       .  S
C98         C433   1.483       .  S
O99         V107   1.894       .  S
O99         C109   1.263       .  A
O100        V107   1.899       .  S
O100        C110   1.265       .  A
O101        V107   1.906       .  S
O101        C111   1.266       .  A
O102        V107   1.907       .  S
O102        C112   1.266       .  A
O103        V108   1.905       .  S
O103        C112   1.265       .  A
O104        V108   1.903       .  S
O104        C111   1.265       .  A
O105        V108   1.905       .  S
O105        C110   1.266       .  A
O106        V108   1.910       .  S
O106        C109   1.268       .  A
V107        V108   2.086       .  T
C109        C441   1.483       .  S
C110        C425   1.483       .  S
C111        C353   1.483       .  S
C112        C377   1.481       .  S
O113        V121   1.899       .  S
O113        C123   1.265   1_556  A
O114        V121   1.897       .  S
O114        C124   1.264   1_556  A
O115        V121   1.900       .  S
O115        C125   1.265   1_556  A
O116        V121   1.905       .  S
O116        C126   1.266   1_556  A
O117        V122   1.901       .  S
O117        C126   1.265       .  A
O118        V122   1.902       .  S
O118        C125   1.266       .  A
O119        V122   1.909       .  S
O119        C124   1.267       .  A
O120        V122   1.905       .  S
O120        C123   1.266       .  A
V121        V122   2.083   1_556  T
C123        C321   1.483   1_554  S
C124        C689   1.478       .  S
C125        C337   1.482       .  S
C126        C601   1.479   1_554  S
O127        V135   1.903       .  S
O127        C137   1.266       .  A
O128        V135   1.900       .  S
O128        C138   1.265       .  A
O129        V135   1.905       .  S
O129        C139   1.265       .  A
O130        V135   1.903       .  S
O130        C140   1.265       .  A
O131        V136   1.905       .  S
O131        C140   1.267       .  A
O132        V136   1.902       .  S
O132        C139   1.265       .  A
O133        V136   1.903       .  S
O133        C138   1.265       .  A
O134        V136   1.896       .  S
O134        C137   1.264       .  A
V135        V136   2.083       .  T
C137        C305   1.480       .  S
C138        C561   1.474       .  S
C139        C665   1.475       .  S
C140        C289   1.485       .  S
O141        V149   1.904       .  S
O141        C151   1.266       .  A
O142        V149   1.907       .  S
O142        C152   1.266       .  A
O143        V149   1.903       .  S
O143        C153   1.265       .  A
O144        V149   1.905       .  S
O144        C154   1.266       .  A
O145        V150   1.902       .  S
O145        C154   1.265   1_556  A
O146        V150   1.906       .  S
O146        C153   1.266   1_556  A
O147        V150   1.896       .  S
O147        C152   1.264   1_556  A
O148        V150   1.898       .  S
O148        C151   1.265   1_556  A
V149        V150   2.085   1_554  T
C151        C345   1.482       .  S
C152        C577   1.477       .  S
C153        C497   1.483       .  S
C154        C281   1.485       .  S
O155        V163   1.898       .  S
O155        C165   1.265       .  A
O156        V163   1.902       .  S
O156        C166   1.265       .  A
O157        V163   1.897       .  S
O157        C167   1.264       .  A
O158        V163   1.900       .  S
O158        C168   1.265       .  A
O159        V164   1.905       .  S
O159        C168   1.266       .  A
O160        V164   1.909       .  S
O160        C167   1.266       .  A
O161        V164   1.896       .  S
O161        C166   1.264       .  A
O162        V164   1.900       .  S
O162        C165   1.265       .  A
V163        V164   2.083       .  T
C165        C313   1.480       .  S
C166        C553   1.473       .  S
C167        C473   1.475       .  S
C168        C257   1.484       .  S
O169        V177   1.900       .  S
O169        C179   1.265   1_554  A
O170        V177   1.905       .  S
O170        C180   1.265   1_554  A
O171        V177   1.908       .  S
O171        C181   1.267   1_554  A
O172        V177   1.904       .  S
O172        C182   1.265   1_554  A
O173        V178   1.905       .  S
O173        C182   1.265       .  A
O174        V178   1.900       .  S
O174        C181   1.265       .  A
O175        V178   1.906       .  S
O175        C180   1.265       .  A
O176        V178   1.908       .  S
O176        C179   1.267       .  A
V177        V178   2.084   1_554  T
C179        C241   1.486       .  S
C180        C409   1.474       .  S
C181        C273   1.485       .  S
C182        C489   1.476       .  S
O183        V191   1.911       .  S
O183        C193   1.267       .  A
O184        V191   1.911       .  S
O184        C194   1.267       .  A
O185        V191   1.904       .  S
O185        C195   1.266       .  A
O186        V191   1.901       .  S
O186        C196   1.265       .  A
O187        V192   1.904       .  S
O187        C196   1.266       .  A
O188        V192   1.901       .  S
O188        C195   1.266       .  A
O189        V192   1.900       .  S
O189        C194   1.264       .  A
O190        V192   1.900       .  S
O190        C193   1.266       .  A
V191        V192   2.083       .  T
C193        C225   1.488       .  S
C194        C369   1.478       .  S
C195        C265   1.484       .  S
C196        C449   1.480       .  S
O197        V205   1.906       .  S
O197        C207   1.266   1_556  A
O198        V205   1.902       .  S
O198        C208   1.264   1_556  A
O199        V205   1.906       .  S
O199        C209   1.267   1_556  A
O200        V205   1.912       .  S
O200        C210   1.267       .  A
O201        V206   1.894       .  S
O201        C210   1.263   1_554  A
O202        V206   1.896       .  S
O202        C209   1.264       .  A
O203        V206   1.909       .  S
O203        C208   1.267       .  A
O204        V206   1.904       .  S
O204        C207   1.267       .  A
V205        V206   2.084   1_556  T
C207        C249   1.487       .  S
C208        C385   1.479       .  S
C209        C329   1.482       .  S
C210        C673   1.477       .  S
O211        V219   1.901       .  S
O211        C221   1.265       .  A
O212        V219   1.898       .  S
O212        C222   1.264       .  A
O213        V219   1.906       .  S
O213        C223   1.266       .  A
O214        V219   1.902       .  S
O214        C224   1.264       .  A
O215        V220   1.908       .  S
O215        C224   1.265       .  A
O216        V220   1.903       .  S
O216        C223   1.266       .  A
O217        V220   1.908       .  S
O217        C222   1.266       .  A
O218        V220   1.905       .  S
O218        C221   1.266       .  A
V219        V220   2.086       .  T
C221        C297   1.485       .  S
C222        C649   1.479       .  S
C223        C233   1.487       .  S
C224        C361   1.474       .  S
C225        C226   1.407       .  A
C225        C230   1.410       .  A
C226        C227   1.397       .  A
C226        H235   1.083       .  S
C227        C228   1.401   1_545  A
C227        H236   1.083   1_545  S
C228        C234   1.406       .  A
C228        C229   1.414       .  A
C229        C231   1.404       .  A
C229        C230   1.410   1_565  A
C230        H237   1.084       .  S
C231        C232   1.401       .  A
C231        H238   1.083       .  S
C232        C233   1.407       .  A
C232        H239   1.083       .  S
C233        C234   1.407       .  A
C234        H240   1.084       .  S
C241        C242   1.406       .  A
C241        C246   1.408   1_556  A
C242        C243   1.401       .  A
C242        H251   1.083       .  S
C243        C244   1.404   1_545  A
C243        H252   1.083       .  S
C244        C250   1.408       .  A
C244        C245   1.413   1_566  A
C245        C247   1.402   1_545  A
C245        C246   1.406       .  A
C246        H253   1.084       .  S
C247        C248   1.398       .  A
C247        H254   1.084   1_565  S
C248        C249   1.406       .  A
C248        H255   1.083       .  S
C249        C250   1.410   1_554  A
C250        H256   1.084       .  S
C257        C258   1.407       .  A
C257        C262   1.407       .  A
C258        C259   1.398       .  A
C258        H267   1.083       .  S
C259        C260   1.402   1_655  A
C259        H268   1.083       .  S
C260        C266   1.406       .  A
C260        C261   1.414   1_455  A
C261        C263   1.402   1_655  A
C261        C262   1.406       .  A
C262        H269   1.084       .  S
C263        C264   1.398       .  A
C263        H270   1.083   1_455  S
C264        C265   1.407       .  A
C264        H271   1.083       .  S
C265        C266   1.408       .  A
C266        H272   1.084       .  S
C273        C274   1.407       .  A
C273        C278   1.408   1_556  A
C274        C275   1.398       .  A
C274        H283   1.083       .  S
C275        C276   1.402   1_455  A
C275        H284   1.084   1_455  S
C276        C282   1.406       .  A
C276        C277   1.414   1_656  A
C277        C279   1.403   1_455  A
C277        C278   1.408       .  A
C278        H285   1.084       .  S
C279        C280   1.399       .  A
C279        H286   1.084   1_655  S
C280        C281   1.406       .  A
C280        H287   1.083       .  S
C281        C282   1.408   1_554  A
C282        H288   1.084       .  S
C289        C290   1.406       .  A
C289        C294   1.409       .  A
C290        C291   1.398       .  A
C290        H299   1.083       .  S
C291        C292   1.402   1_655  A
C291        H300   1.084   1_655  S
C292        C298   1.406       .  A
C292        C293   1.413   1_455  A
C293        C295   1.403   1_655  A
C293        C294   1.407       .  A
C294        H301   1.084       .  S
C295        C296   1.400       .  A
C295        H302   1.084       .  S
C296        C297   1.406       .  A
C296        H303   1.083       .  S
C297        C298   1.408       .  A
C298        H304   1.084       .  S
C305        C306   1.406       .  A
C305        C310   1.407       .  A
C306        C307   1.396       .  A
C306        H315   1.083       .  S
C307        C308   1.401   1_565  A
C307        H316   1.083       .  S
C308        C314   1.402       .  A
C308        C309   1.414   1_545  A
C309        C311   1.402   1_565  A
C309        C310   1.405       .  A
C310        H317   1.084       .  S
C311        C312   1.398       .  A
C311        H318   1.083   1_545  S
C312        C313   1.406       .  A
C312        H319   1.083       .  S
C313        C314   1.406       .  A
C314        H320   1.084       .  S
C321        C322   1.407       .  A
C321        C326   1.407   1_556  A
C322        C323   1.398       .  A
C322        H331   1.083       .  S
C323        C324   1.402   1_655  A
C323        H332   1.083       .  S
C324        C330   1.406       .  A
C324        C325   1.414   1_456  A
C325        C327   1.401   1_655  A
C325        C326   1.405       .  A
C326        H333   1.084       .  S
C327        C328   1.397       .  A
C327        H334   1.083       .  S
C328        C329   1.407       .  A
C328        H335   1.083       .  S
C329        C330   1.407   1_554  A
C330        H336   1.084       .  S
C337        C338   1.406       .  A
C337        C342   1.406   1_554  A
C338        C339   1.399       .  A
C338        H347   1.083       .  S
C339        C340   1.403       .  A
C339        H348   1.084       .  S
C340        C346   1.406   1_565  A
C340        C341   1.414   1_554  A
C341        C343   1.401   1_565  A
C341        C342   1.404       .  A
C342        H349   1.084       .  S
C343        C344   1.397       .  A
C343        H350   1.084   1_545  S
C344        C345   1.406   1_556  A
C344        H351   1.083       .  S
C345        C346   1.408       .  A
C346        H352   1.084       .  S
C353        C354   1.406       .  A
C353        C358   1.407       .  A
C354        C355   1.400       .  A
C354        H363   1.083       .  S
C355        C356   1.403       .  A
C355        H364   1.084       .  S
C356        C362   1.409       .  A
C356        C357   1.415       .  A
C357        C359   1.403       .  A
C357        C358   1.407       .  A
C358        H365   1.085       .  S
C359        C360   1.399       .  A
C359        H366   1.084       .  S
C360        C361   1.402       .  A
C360        H367   1.083       .  S
C361        C362   1.405       .  A
C362        H368   1.085       .  S
C369        C370   1.404       .  A
C369        C374   1.406       .  A
C370        C371   1.401       .  A
C370        H379   1.083       .  S
C371        C372   1.405       .  A
C371        H380   1.084       .  S
C372        C378   1.408       .  A
C372        C373   1.414       .  A
C373        C375   1.403       .  A
C373        C374   1.407       .  A
C374        H381   1.085       .  S
C375        C376   1.399       .  A
C375        H382   1.084       .  S
C376        C377   1.404       .  A
C376        H383   1.083       .  S
C377        C378   1.408       .  A
C378        H384   1.084       .  S
C385        C386   1.403       .  A
C385        C390   1.407   1_554  A
C386        C387   1.400       .  A
C386        H395   1.083       .  S
C387        C388   1.404       .  A
C387        H396   1.083       .  S
C388        C394   1.408       .  A
C388        C389   1.414   1_554  A
C389        C391   1.404       .  A
C389        C390   1.408       .  A
C390        H397   1.084       .  S
C391        C392   1.400       .  A
C391        H398   1.084       .  S
C392        C393   1.406       .  A
C392        H399   1.083       .  S
C393        C394   1.408   1_556  A
C394        H400   1.084       .  S
C401        C402   1.406       .  A
C401        C406   1.408       .  A
C402        C403   1.400       .  A
C402        H411   1.083       .  S
C403        C404   1.403       .  A
C403        H412   1.084       .  S
C404        C410   1.408       .  A
C404        C405   1.415       .  A
C405        C407   1.404       .  A
C405        C406   1.408       .  A
C406        H413   1.084       .  S
C407        C408   1.399       .  A
C407        H414   1.084   1_556  S
C408        C409   1.403       .  A
C408        H415   1.083   1_556  S
C409        C410   1.405       .  A
C410        H416   1.085       .  S
C417        C418   1.407       .  A
C417        C422   1.407       .  A
C418        C419   1.398       .  A
C418        H427   1.083       .  S
C419        C420   1.402       .  A
C419        H428   1.083       .  S
C420        C426   1.406       .  A
C420        C421   1.414       .  A
C421        C423   1.402       .  A
C421        C422   1.406       .  A
C422        H429   1.083       .  S
C423        C424   1.397       .  A
C423        H430   1.083       .  S
C424        C425   1.407       .  A
C424        H431   1.083       .  S
C425        C426   1.407       .  A
C426        H432   1.083       .  S
C433        C434   1.405       .  A
C433        C438   1.408       .  A
C434        C435   1.399       .  A
C434        H443   1.083       .  S
C435        C436   1.404       .  A
C435        H444   1.083       .  S
C436        C442   1.405       .  A
C436        C437   1.412       .  A
C437        C439   1.403       .  A
C437        C438   1.404       .  A
C438        H445   1.084       .  S
C439        C440   1.399       .  A
C439        H446   1.083       .  S
C440        C441   1.405       .  A
C440        H447   1.083       .  S
C441        C442   1.409       .  A
C442        H448   1.084       .  S
C449        C450   1.406       .  A
C449        C454   1.406       .  A
C450        C451   1.399       .  A
C450        H459   1.083       .  S
C451        C452   1.402       .  A
C451        H460   1.084       .  S
C452        C458   1.406       .  A
C452        C453   1.415       .  A
C453        C455   1.403       .  A
C453        C454   1.405       .  A
C454        H461   1.084       .  S
C455        C456   1.398       .  A
C455        H462   1.084       .  S
C456        C457   1.402       .  A
C456        H463   1.083       .  S
C457        C458   1.404       .  A
C458        H464   1.085       .  S
C465        C466   1.405       .  A
C465        C470   1.404       .  A
C466        C467   1.400       .  A
C466        H475   1.083       .  S
C467        C468   1.404       .  A
C467        H476   1.084       .  S
C468        C474   1.408       .  A
C468        C469   1.415       .  A
C469        C471   1.401       .  A
C469        C470   1.404       .  A
C470        H477   1.085       .  S
C471        C472   1.396       .  A
C471        H478   1.084       .  S
C472        C473   1.404       .  A
C472        H479   1.083       .  S
C473        C474   1.406       .  A
C474        H480   1.085       .  S
C481        C482   1.405   1_556  A
C481        C486   1.406       .  A
C482        C483   1.400       .  A
C482        H491   1.083       .  S
C483        C484   1.404   1_554  A
C483        H492   1.084       .  S
C484        C490   1.408       .  A
C484        C485   1.415       .  A
C485        C487   1.403       .  A
C485        C486   1.406       .  A
C486        H493   1.085       .  S
C487        C488   1.399       .  A
C487        H494   1.084       .  S
C488        C489   1.403       .  A
C488        H495   1.083       .  S
C489        C490   1.406       .  A
C490        H496   1.085   1_556  S
C497        C498   1.406       .  A
C497        C502   1.407   1_554  A
C498        C499   1.400       .  A
C498        H507   1.083       .  S
C499        C500   1.403       .  A
C499        H508   1.084       .  S
C500        C506   1.408       .  A
C500        C501   1.415   1_554  A
C501        C503   1.403       .  A
C501        C502   1.407       .  A
C502        H509   1.085       .  S
C503        C504   1.399       .  A
C503        H510   1.084       .  S
C504        C505   1.403       .  A
C504        H511   1.083       .  S
C505        C506   1.405   1_556  A
C506        H512   1.085       .  S
C513        C514   1.406       .  A
C513        C518   1.410       .  A
C514        C515   1.399       .  A
C514        H523   1.083       .  S
C515        C516   1.403       .  A
C515        H524   1.083       .  S
C516        C522   1.407       .  A
C516        C517   1.413       .  A
C517        C519   1.403       .  A
C517        C518   1.408       .  A
C518        H525   1.083       .  S
C519        C520   1.400       .  A
C519        H526   1.083       .  S
C520        C521   1.407       .  A
C520        H527   1.083       .  S
C521        C522   1.409       .  A
C522        H528   1.083       .  S
C529        C530   1.407       .  A
C529        C534   1.407       .  A
C530        C531   1.399       .  A
C530        H539   1.083       .  S
C531        C532   1.402       .  A
C531        H540   1.083       .  S
C532        C538   1.408       .  A
C532        C533   1.414       .  A
C533        C535   1.402       .  A
C533        C534   1.407       .  A
C534        H541   1.083       .  S
C535        C536   1.398       .  A
C535        H542   1.083       .  S
C536        C537   1.407       .  A
C536        H543   1.083       .  S
C537        C538   1.408       .  A
C538        H544   1.083       .  S
C545        C546   1.403       .  A
C545        C550   1.402       .  A
C546        C547   1.397       .  A
C546        H555   1.083       .  S
C547        C548   1.403       .  A
C547        H556   1.084       .  S
C548        C554   1.403       .  A
C548        C549   1.415       .  A
C549        C551   1.402       .  A
C549        C550   1.403       .  A
C550        H557   1.085       .  S
C551        C552   1.397       .  A
C551        H558   1.084       .  S
C552        C553   1.404       .  A
C552        H559   1.083       .  S
C553        C554   1.405       .  A
C554        H560   1.085       .  S
C561        C562   1.404       .  A
C561        C566   1.405       .  A
C562        C563   1.397       .  A
C562        H571   1.083       .  S
C563        C564   1.402       .  A
C563        H572   1.084       .  S
C564        C570   1.404       .  A
C564        C565   1.415       .  A
C565        C567   1.403       .  A
C565        C566   1.406       .  A
C566        H573   1.084       .  S
C567        C568   1.399       .  A
C567        H574   1.084       .  S
C568        C569   1.404       .  A
C568        H575   1.083       .  S
C569        C570   1.404       .  A
C570        H576   1.085       .  S
C577        C578   1.404       .  A
C577        C582   1.405   1_554  A
C578        C579   1.400       .  A
C578        H587   1.083       .  S
C579        C580   1.404       .  A
C579        H588   1.084       .  S
C580        C586   1.406       .  A
C580        C581   1.414   1_554  A
C581        C583   1.403       .  A
C581        C582   1.403       .  A
C582        H589   1.085       .  S
C583        C584   1.397       .  A
C583        H590   1.084       .  S
C584        C585   1.402   1_556  A
C584        H591   1.083       .  S
C585        C586   1.405       .  A
C586        H592   1.085       .  S
C593        C594   1.403       .  A
C593        C598   1.405   1_554  A
C594        C595   1.398       .  A
C594        H603   1.083       .  S
C595        C596   1.403       .  A
C595        H604   1.084       .  S
C596        C602   1.405       .  A
C596        C597   1.415   1_554  A
C597        C599   1.403       .  A
C597        C598   1.406       .  A
C598        H605   1.085       .  S
C599        C600   1.399       .  A
C599        H606   1.084       .  S
C600        C601   1.405       .  A
C600        H607   1.083       .  S
C601        C602   1.406   1_556  A
C602        H608   1.085       .  S
C609        C610   1.408       .  A
C609        C614   1.407       .  A
C610        C611   1.396       .  A
C610        H619   1.083       .  S
C611        C612   1.400       .  A
C611        H620   1.083       .  S
C612        C618   1.406       .  A
C612        C613   1.415       .  A
C613        C615   1.402       .  A
C613        C614   1.408       .  A
C614        H621   1.083       .  S
C615        C616   1.399       .  A
C615        H622   1.083       .  S
C616        C617   1.407       .  A
C616        H623   1.083       .  S
C617        C618   1.405       .  A
C618        H624   1.083       .  S
C625        C626   1.407       .  A
C625        C630   1.406       .  A
C626        C627   1.399       .  A
C626        H635   1.083       .  S
C627        C628   1.402       .  A
C627        H636   1.083       .  S
C628        C634   1.408       .  A
C628        C629   1.414       .  A
C629        C631   1.400       .  A
C629        C630   1.405       .  A
C630        H637   1.084       .  S
C631        C632   1.396       .  A
C631        H638   1.083       .  S
C632        C633   1.407       .  A
C632        H639   1.083       .  S
C633        C634   1.407       .  A
C634        H640   1.084       .  S
C641        C642   1.403       .  A
C641        C646   1.404       .  A
C642        C643   1.399       .  A
C642        H651   1.083       .  S
C643        C644   1.403       .  A
C643        H652   1.084       .  S
C644        C650   1.407       .  A
C644        C645   1.415       .  A
C645        C647   1.402       .  A
C645        C646   1.406       .  A
C646        H653   1.085       .  S
C647        C648   1.398       .  A
C647        H654   1.084       .  S
C648        C649   1.405       .  A
C648        H655   1.083       .  S
C649        C650   1.406       .  A
C650        H656   1.085       .  S
C657        C658   1.404       .  A
C657        C662   1.406       .  A
C658        C659   1.400       .  A
C658        H667   1.083       .  S
C659        C660   1.404       .  A
C659        H668   1.084       .  S
C660        C666   1.406       .  A
C660        C661   1.414       .  A
C661        C663   1.403       .  A
C661        C662   1.405       .  A
C662        H669   1.085       .  S
C663        C664   1.399       .  A
C663        H670   1.084       .  S
C664        C665   1.403       .  A
C664        H671   1.083       .  S
C665        C666   1.406       .  A
C666        H672   1.085       .  S
C673        C674   1.403       .  A
C673        C678   1.406   1_556  A
C674        C675   1.401       .  A
C674        H683   1.083       .  S
C675        C676   1.405       .  A
C675        H684   1.084       .  S
C676        C682   1.407       .  A
C676        C677   1.414   1_556  A
C677        C679   1.403       .  A
C677        C678   1.404       .  A
C678        H685   1.085       .  S
C679        C680   1.397       .  A
C679        H686   1.084       .  S
C680        C681   1.404       .  A
C680        H687   1.083       .  S
C681        C682   1.407   1_554  A
C682        H688   1.084       .  S
C689        C690   1.404       .  A
C689        C694   1.405       .  A
C690        C691   1.402       .  A
C690        H699   1.083       .  S
C691        C692   1.405       .  A
C691        H700   1.084       .  S
C692        C698   1.408       .  A
C692        C693   1.414       .  A
C693        C695   1.402   1_554  A
C693        C694   1.404       .  A
C694        H701   1.085   1_554  S
C695        C696   1.397       .  A
C695        H702   1.084       .  S
C696        C697   1.403   1_556  A
C696        H703   1.083       .  S
C697        C698   1.407       .  A
C698        H704   1.085       .  S
C705        C706   1.406       .  A
C705        C710   1.408       .  A
C706        C707   1.396       .  A
C706        H715   1.083       .  S
C707        C708   1.401       .  A
C707        H716   1.083       .  S
C708        C714   1.404       .  A
C708        C709   1.414       .  A
C709        C711   1.402       .  A
C709        C710   1.407       .  A
C710        H717   1.084       .  S
C711        C712   1.399       .  A
C711        H718   1.083       .  S
C712        C713   1.407       .  A
C712        H719   1.083       .  S
C713        C714   1.405       .  A
C714        H720   1.084       .  S
C721        C722   1.406       .  A
C721        C726   1.407       .  A
C722        C723   1.398       .  A
C722        H731   1.083       .  S
C723        C724   1.402       .  A
C723        H732   1.083       .  S
C724        C730   1.404       .  A
C724        C725   1.413       .  A
C725        C727   1.402       .  A
C725        C726   1.404       .  A
C726        H733   1.083       .  S
C727        C728   1.398       .  A
C727        H734   1.083       .  S
C728        C729   1.406       .  A
C728        H735   1.083       .  S
C729        C730   1.407       .  A
C730        H736   1.083       .  S
