geometry optimzed in LAMMPS
_audit_creation_date              2020-11-30 
_audit_creation_method            'lammps2cif' 
_symmetry_space_group_name_H-M    'P1' 
_symmetry_Int_Tables_number       1 
_symmetry_cell_setting            triclinic 
loop_ 
_symmetry_equiv_pos_as_xyz 
  x,y,z 
_cell_length_a                    48.96539732 
_cell_length_b                    21.77247630601397 
_cell_length_c                    47.809995497194414 
_cell_angle_alpha                 90.14514344060765 
_cell_angle_beta                  90.48025769444001 
_cell_angle_gamma                 89.99719916819666 
loop_ 
_atom_site_label 
_atom_site_type_symbol 
_atom_site_fract_x 
_atom_site_fract_y 
_atom_site_fract_z 
_atom_site_charge 
C1          C  0.11527698  0.17991808  0.34603993     0.02500
C2          C  0.11274683  0.11503197  0.34687063     0.02500
C3          C  0.13091416  0.08181984  0.36436570    -0.18000
C4          C  0.15126203  0.11005328  0.38154855     0.02500
C5          C  0.15146848  0.17917789  0.38183876     0.02500
C6          C  0.13427216  0.20987143  0.36296644    -0.18000
H7          H  0.13504267  0.25966280  0.36186301     0.04500
H8          H  0.12907361  0.03221899  0.36470991     0.04500
O9          O  0.89873988  0.07951944  0.13968471    -0.71600
O10         O  0.95873807  0.07615978  0.19136856    -0.71800
O11         O  0.95337016  0.07635790  0.13497584    -0.71600
O12         O  0.90455036  0.08176364  0.19543431    -0.71600
O13         O  0.89873511  0.48440031  0.19117209    -0.71600
O14         O  0.95885056  0.47926161  0.14063383    -0.71600
O15         O  0.95399466  0.47917319  0.19638330    -0.71600
O16         O  0.90414589  0.48145682  0.13455258    -0.71800
V17         V  0.92890331  0.07658740  0.16531187     1.35200
V18         V  0.92884856  0.48245365  0.16577311     1.35200
C19         C  0.89255241  0.53093640  0.12741355     0.77700
C20         C  0.96598802  0.02590407  0.20253267     0.77700
C21         C  0.96639018  0.52830823  0.12871838     0.77600
C22         C  0.89254174  0.03412039  0.20366871     0.77600
O23         O  0.94872254  0.23093027  0.14634362    -0.71600
O24         O  0.90249183  0.23508474  0.21050161    -0.71800
O25         O  0.89389681  0.23735324  0.15505422    -0.71600
O26         O  0.95640205  0.22992020  0.20238848    -0.71600
O27         O  0.95793555  0.32924364  0.20299584    -0.71600
O28         O  0.89665985  0.33644571  0.15399378    -0.71600
O29         O  0.90291514  0.33450392  0.20983424    -0.71600
O30         O  0.95153459  0.33042495  0.14722793    -0.71800
V31         V  0.92542239  0.23524393  0.17839622     1.35200
V32         V  0.92725847  0.33076657  0.17851080     1.35200
C33         C  0.95866745  0.27982429  0.13630788     0.77700
C34         C  0.89437470  0.28524605  0.22086515     0.77700
C35         C  0.88403738  0.28818886  0.14701863     0.77600
C36         C  0.96766610  0.27855648  0.21120988     0.77600
C37         C  0.10757501  0.44155363  0.99096078     0.02500
C38         C  0.10781649  0.37740274  0.99560434     0.02500
C39         C  0.13283121  0.33924913  0.47510019    -0.18000
C40         C  0.15029309  0.36319429  0.45401088     0.02500
C41         C  0.14908549  0.43093621  0.44908463     0.02500
C42         C  0.12980652  0.46506868  0.46400708    -0.18000
H43         H  0.12769016  0.51374946  0.46034043     0.04500
H44         H  0.13338625  0.29038002  0.47935733     0.04500
C45         C  0.66633829  0.19336182  0.45138458     0.86700
C46         C  0.67831764  0.24853932  0.46852376    -0.53500
C47         C  0.69511481  0.28875915  0.45333422     0.09600
C48         C  0.69909755  0.26600576  0.42241996     0.20600
C49         C  0.65292561  0.23002413  0.42631417    -0.54200
C50         C  0.66965152  0.27327540  0.41340276     0.09700
C51         C  0.69277410  0.16412721  0.44209999    -0.53800
C52         C  0.70599695  0.19266352  0.42158701     0.10300
H53         H  0.67430209  0.25503279  0.49062639     0.14800
H54         H  0.71340998  0.29508973  0.41038394     0.00600
H55         H  0.63141197  0.22578124  0.42116135     0.15100
H56         H  0.69978396  0.12046956  0.45029140     0.14900
C57         C  0.69576693  0.03298648  0.40786526     0.86700
C58         C  0.71188603  0.49847310  0.42876681    -0.53500
C59         C  0.69869575  0.45349504  0.44409898     0.09600
C60         C  0.66763183  0.45837561  0.43910217     0.20600
C61         C  0.68066630  0.48033848  0.39061096    -0.54200
C62         C  0.66656535  0.43814476  0.40729410     0.09700
C63         C  0.67080480  0.06212665  0.41909907    -0.53800
C64         C  0.65911168  0.03266221  0.44000811     0.10300
H65         H  0.73394851  0.50328194  0.42890945     0.14800
H66         H  0.65582045  0.42765625  0.45295444     0.00600
H67         H  0.68178640  0.47525478  0.36806134     0.15100
H68         H  0.66309223  0.10543115  0.41114354     0.14900
C69         C  0.64424052  0.07414574  0.46140267     0.02500
C70         C  0.64639734  0.14305734  0.46555025     0.02500
C71         C  0.62752280  0.16936527  0.48436931    -0.18000
C72         C  0.61327876  0.10852840  0.99109759     0.02500
C73         C  0.61205623  0.04407917  0.98757602     0.02500
C74         C  0.62561083  0.04134927  0.47796602    -0.18000
H75         H  0.62395545  0.99201245  0.47570105     0.04500
H76         H  0.62729025  0.21873198  0.48727321     0.04500
C77         C  0.66035361  0.31860027  0.39126653     0.02500
C78         C  0.65115347  0.38297927  0.39392949     0.02500
C79         C  0.63023157  0.40201363  0.37491283    -0.18000
C80         C  0.62228810  0.36629650  0.35121474     0.02500
C81         C  0.63451656  0.31000114  0.34853573     0.02500
C82         C  0.65308467  0.28622185  0.36727359    -0.18000
H83         H  0.65897472  0.23831815  0.36486590     0.04500
H84         H  0.62044321  0.44554037  0.37893954     0.04500
C85         C  0.26275757  0.39774250  0.35408950     0.02500
C86         C  0.26808821  0.34637650  0.36977823     0.02500
C87         C  0.24963925  0.32282934  0.38882360    -0.18000
C88         C  0.22523588  0.35377764  0.39442024     0.02500
C89         C  0.22328090  0.41926161  0.38496978     0.02500
C90         C  0.24281559  0.43871052  0.36490412    -0.18000
H91         H  0.24185201  0.48529234  0.35712775     0.04500
H92         H  0.25294869  0.27671292  0.39675603     0.04500
C93         C  0.20438279  0.47122254  0.39776854     0.86700
C94         C  0.18765311  0.02157158  0.37979742    -0.53500
C95         C  0.17096093  0.06127761  0.39552111     0.09600
C96         C  0.17285328  0.04321981  0.42761641     0.20600
C97         C  0.21969787  0.01630643  0.41902092    -0.54200
C98         C  0.20362513  0.05753062  0.43392987     0.09700
C99         C  0.18214755  0.43830124  0.41216499    -0.53800
C100        C  0.16724086  0.46969461  0.42987067     0.10300
H101        H  0.18872956  0.02416559  0.35717331     0.14800
H102        H  0.15863989  0.06813076  0.44128769     0.00600
H103        H  0.24178952  0.01598449  0.42115221     0.15100
H104        H  0.17336776  0.39743923  0.40314330     0.14900
C105        C  0.21651517  0.10519379  0.45516997     0.02500
C106        C  0.21505917  0.17431053  0.45747291     0.02500
C107        C  0.23147310  0.20354915  0.47773863    -0.18000
C108        C  0.24946130  0.17112649  0.49503410     0.02500
C109        C  0.25101011  0.10668429  0.49312407     0.02500
C110        C  0.23452374  0.07527826  0.47390873    -0.18000
H111        H  0.23618784  0.02557619  0.47344183     0.04500
H112        H  0.23086185  0.25301218  0.47993836     0.04500
C113        C  0.16712437  0.22639702  0.40110761     0.86700
C114        C  0.15000877  0.27337156  0.41873624    -0.53500
C115        C  0.16486322  0.31164606  0.43660008     0.09600
C116        C  0.19628626  0.29362058  0.43594117     0.20600
C117        C  0.18880149  0.26936660  0.38695890    -0.54200
C118        C  0.20319350  0.30823239  0.40487197     0.09700
C119        C  0.18138168  0.19058357  0.42230423    -0.53800
C120        C  0.19845423  0.21887651  0.43913370     0.10300
H121        H  0.12800846  0.27731128  0.41648481     0.14800
H122        H  0.20892493  0.32049782  0.45091983     0.00600
H123        H  0.19174619  0.27014679  0.36449539     0.15100
H124        H  0.17061403  0.15383628  0.43138730     0.14900
O125        O  0.46544130  0.02333734  0.14430288    -0.71600
O126        O  0.40842824  0.04570168  0.19802764    -0.71800
O127        O  0.46399215  0.02710393  0.20113735    -0.71600
O128        O  0.41135550  0.04214965  0.14230450    -0.71600
O129        O  0.40740507  0.44581037  0.14432865    -0.71600
O130        O  0.46102522  0.43522096  0.20266662    -0.71600
O131        O  0.40572387  0.45138698  0.19964229    -0.71600
O132        O  0.46244585  0.42969923  0.14560169    -0.71800
V133        V  0.43738083  0.03257141  0.17158861     1.35200
V134        V  0.43445863  0.44242318  0.17315933     1.35200
C135        C  0.47139194  0.97118241  0.13408323     0.77700
C136        C  0.39740802  0.50395258  0.20711403     0.77700
C137        C  0.47318878  0.48275047  0.21172037     0.77600
C138        C  0.39813584  0.99603472  0.13350554     0.77600
O139        O  0.46248079  0.27004711  0.14163929    -0.71600
O140        O  0.42366856  0.28431670  0.20958891    -0.71800
O141        O  0.47541045  0.26816855  0.19638479    -0.71600
O142        O  0.40900709  0.28707513  0.15439476    -0.71600
O143        O  0.40711575  0.18814208  0.15000690    -0.71600
O144        O  0.46642797  0.17152506  0.20234887    -0.71600
O145        O  0.41276161  0.18789362  0.20735542    -0.71600
O146        O  0.46196410  0.17106039  0.14591572    -0.71800
V147        V  0.44244746  0.27560952  0.17538957     1.35200
V148        V  0.43700305  0.18111812  0.17618936     1.35200
C149        C  0.47092570  0.21817392  0.13345709     0.77700
C150        C  0.41159653  0.23885208  0.22021135     0.77700
C151        C  0.48077474  0.21803085  0.20861091     0.77600
C152        C  0.39727117  0.24047724  0.14381097     0.77600
C153        C  0.75798872  0.14575952  0.36379629     0.02500
C154        C  0.75242717  0.08434911  0.36159403     0.02500
C155        C  0.73230459  0.05341340  0.37530174    -0.18000
C156        C  0.71513169  0.08261729  0.39398672     0.02500
C157        C  0.71984514  0.15055439  0.39894585     0.02500
C158        C  0.73996196  0.17969733  0.38164182    -0.18000
H159        H  0.74106552  0.22903992  0.38219866     0.04500
H160        H  0.73039268  0.00458770  0.37109422     0.04500
C161        C  0.75487157  0.40580369  0.49471159     0.02500
C162        C  0.74892623  0.34490726  0.50211618     0.02500
C163        C  0.72797124  0.31363666  0.48863415    -0.18000
C164        C  0.71158593  0.34007930  0.46761347     0.02500
C165        C  0.71486450  0.40704374  0.46243573     0.02500
C166        C  0.73716387  0.43609652  0.47636089    -0.18000
H167        H  0.74108303  0.48454923  0.47339396     0.04500
H168        H  0.72520433  0.26578075  0.49434992     0.04500
C169        C  0.37439439  0.24653269  0.12252077     0.01600
C170        C  0.37795896  0.22257914  0.09558889     0.04400
C171        C  0.35579687  0.21729655  0.07684457    -0.11700
C172        C  0.33160620  0.25245294  0.08061929     0.23700
C173        C  0.33017333  0.28663183  0.10591552    -0.12200
C174        C  0.34906558  0.27522407  0.12783501     0.05100
C175        C  0.30839392  0.25023528  0.05902051     0.27500
C176        C  0.31407958  0.25529895  0.02972817    -0.12900
C177        C  0.29416900  0.23842955  0.00952603     0.05600
C178        C  0.26876112  0.21558380  0.01801685    -0.08900
C179        C  0.26105353  0.22253006  0.04590389     0.06400
C180        C  0.28051969  0.23835917  0.06660229    -0.13300
Br181      Br  0.30568910  0.35523211  0.11075787    -0.05300
Br182      Br  0.41378613  0.20515861  0.08242646     0.00300
Br183      Br  0.29956863  0.23606009  0.46711690     0.00700
Br184      Br  0.26680421  0.23869953  0.10447272    -0.03700
Br185      Br  0.33582124  0.28441962  0.16478438     0.00800
Br186      Br  0.35918907  0.15579000  0.04851801    -0.03800
Br187      Br  0.34902162  0.28381150  0.01584386    -0.03800
Br188      Br  0.22283929  0.21251587  0.05491345     0.00100
C189        C  0.37484161  0.00394366  0.11370004     0.01600
C190        C  0.35615790  0.05239256  0.11797039     0.04400
C191        C  0.33396942  0.06034007  0.09951559    -0.11700
C192        C  0.33024327  0.02116811  0.07616902     0.23700
C193        C  0.34695263  0.96923360  0.07396001    -0.12200
C194        C  0.36888307  0.46083686  0.09554695     0.05100
C195        C  0.30869687  0.03378370  0.05442672     0.27500
C196        C  0.28074043  0.03274842  0.06161068    -0.12900
C197        C  0.26102976  0.05632627  0.04298112     0.05600
C198        C  0.26917348  0.08062117  0.01713187    -0.08900
C199        C  0.29584955  0.07007541  0.00772118     0.06400
C200        C  0.31572906  0.04637447  0.02614819    -0.13300
Br201      Br  0.33523195  0.40643684  0.05209682    -0.05300
Br202      Br  0.35828342  0.10337484  0.15122983     0.00300
Br203      Br  0.22279805  0.05149271  0.05203433     0.00700
Br204      Br  0.35174587  0.02967921  0.01126552    -0.03700
Br205      Br  0.39231560  0.39196486  0.08845827     0.00800
Br206      Br  0.30771958  0.12178466  0.10840691    -0.03000
Br207      Br  0.26903740  0.99588159  0.09616130    -0.03800
Br208      Br  0.30913239  0.07757791  0.46740651     0.00100
C209        C  0.27880257  0.40596401  0.32664077     0.01600
C210        C  0.26710478  0.44613239  0.30672578     0.04400
C211        C  0.28309021  0.47535067  0.28697430    -0.11700
C212        C  0.31024256  0.45820255  0.28350685     0.23700
C213        C  0.32150040  0.40919380  0.30031390    -0.12200
C214        C  0.30460744  0.37092774  0.31983822     0.05100
C215        C  0.32709553  0.49013219  0.26108828     0.27500
C216        C  0.32447899  0.47423870  0.23246146    -0.12900
C217        C  0.34673544  0.48288111  0.21415181     0.05600
C218        C  0.37142989  0.50979679  0.22390912    -0.08900
C219        C  0.37082224  0.53909500  0.25026448     0.06400
C220        C  0.34852439  0.53048355  0.26858158    -0.13300
Br221      Br  0.36132255  0.40799422  0.29637368    -0.05300
Br222      Br  0.22779965  0.45317048  0.30270851     0.00300
Br223      Br  0.34298871  0.45622855  0.17581572     0.00700
Br224      Br  0.34823305  0.56857807  0.30504989    -0.03700
Br225      Br  0.32170183  0.22177642  0.35327281     0.00800
Br226      Br  0.26348190  0.04446362  0.26485527    -0.03000
Br227      Br  0.29014074  0.44461576  0.21745233    -0.03800
Br228      Br  0.40097102  0.58751073  0.26213149     0.00100
C229        C  0.28967819  0.31145503  0.35865366     0.01600
C230        C  0.32055283  0.33609529  0.36381413     0.04400
C231        C  0.34366910  0.32240055  0.34052490    -0.11700
C232        C  0.33522086  0.28551952  0.31128010     0.23700
C233        C  0.30388745  0.26360544  0.30682681    -0.12200
C234        C  0.28153257  0.27631165  0.33010828     0.05100
C235        C  0.35550053  0.26737331  0.28883452     0.27500
C236        C  0.35028755  0.28697537  0.26105332    -0.12900
C237        C  0.37069368  0.28404197  0.24112095     0.05600
C238        C  0.39381292  0.24831138  0.24492690    -0.08900
C239        C  0.39987694  0.22724413  0.27208284     0.06400
C240        C  0.38068766  0.23584940  0.29403715    -0.13300
Br241      Br  0.29457211  0.20071471  0.27984241    -0.05300
Br242      Br  0.32778361  0.39225390  0.39393534     0.00300
Br243      Br  0.37151578  0.34541847  0.21327283     0.00700
Br244      Br  0.38846144  0.19707299  0.32933002    -0.03700
Br245      Br  0.24471776  0.24751134  0.32470459     0.00800
Br246      Br  0.38080332  0.34040972  0.35205111    -0.03000
Br247      Br  0.31625866  0.32150098  0.24831173    -0.03800
Br248      Br  0.43610055  0.19631466  0.27996347     0.00100
C249        C  0.59982468  0.38258467  0.32943812     0.01600
C250        C  0.58576125  0.33521393  0.31048872     0.04400
C251        C  0.56854600  0.36746827  0.28891711    -0.11700
C252        C  0.55890207  0.42907738  0.29268133     0.23700
C253        C  0.57141523  0.46633043  0.31259383    -0.12200
C254        C  0.59481014  0.44610810  0.32600930     0.05100
C255        C  0.53767020  0.45724182  0.27330692     0.27500
C256        C  0.54397165  0.47035546  0.24499738    -0.12900
C257        C  0.52274093  0.47396325  0.22496715     0.05600
C258        C  0.49531025  0.47811994  0.23333770    -0.08900
C259        C  0.48941014  0.47645089  0.26217851     0.06400
C260        C  0.51031064  0.46463727  0.28206540    -0.13300
Br261      Br  0.55972721  0.04712615  0.31793041    -0.05300
Br262      Br  0.60204751  0.16876768  0.31429606     0.00300
Br263      Br  0.53106650  0.46241205  0.18608815     0.00700
Br264      Br  0.50110456  0.45934165  0.32125861    -0.03700
Br265      Br  0.62318015  0.50734505  0.33168595     0.00800
Br266      Br  0.56056316  0.34005109  0.25049806    -0.03000
Br267      Br  0.58167066  0.47420979  0.23261740    -0.03800
Br268      Br  0.45244369  0.48556342  0.27445612     0.00100
C269        C  0.61838606  0.27049086  0.33255151     0.01600
C270        C  0.62285408  0.27011051  0.29923560     0.04400
C271        C  0.59737313  0.25386311  0.27889781    -0.11700
C272        C  0.56675797  0.23993368  0.29242530     0.23700
C273        C  0.56322146  0.24229737  0.32584580    -0.12200
C274        C  0.58847922  0.25770549  0.34576102     0.05100
C275        C  0.54183440  0.22208265  0.27493480     0.27500
C276        C  0.51733095  0.25730444  0.27660236    -0.12900
C277        C  0.49883988  0.25868415  0.25392892     0.05600
C278        C  0.50130600  0.21650018  0.23178171    -0.08900
C279        C  0.52243483  0.17271739  0.23303238     0.06400
C280        C  0.54309186  0.17671980  0.25381927    -0.13300
Br281      Br  0.53400596  0.19643270  0.34297577    -0.05300
Br282      Br  0.65701882  0.29795713  0.28460833     0.00300
Br283      Br  0.47080040  0.32141194  0.25293299     0.00700
Br284      Br  0.57170039  0.11682021  0.25420597    -0.03700
Br285      Br  0.58283357  0.26219467  0.38550240     0.00800
Br286      Br  0.60717158  0.24104994  0.24014938    -0.03000
Br287      Br  0.50917371  0.30994469  0.30773710    -0.03800
Br288      Br  0.52402597  0.10930961  0.20557356     0.00100
C289        C  0.49188321  0.21374935  0.11092127     0.01600
C290        C  0.49084994  0.16713841  0.09035951     0.04400
C291        C  0.51102685  0.16379199  0.06949107    -0.11700
C292        C  0.53327312  0.20528609  0.06889506     0.23700
C293        C  0.53378876  0.25241791  0.08921876    -0.12200
C294        C  0.51385133  0.25596135  0.11036340     0.05100
C295        C  0.55649576  0.19557606  0.04835137     0.27500
C296        C  0.58296531  0.17735180  0.05785168    -0.12900
C297        C  0.60102945  0.14720753  0.03937425     0.05600
C298        C  0.59458823  0.14164377  0.01070326    -0.08900
C299        C  0.57081048  0.17024399  0.00037553     0.06400
C300        C  0.55159037  0.19573169  0.01895699    -0.13300
Br301      Br  0.56071136  0.31520507  0.08737182    -0.05300
Br302      Br  0.46272717  0.10496025  0.09084854     0.00300
Br303      Br  0.63444685  0.11181827  0.05361427     0.00700
Br304      Br  0.51838491  0.22893169  0.00321831    -0.03700
Br305      Br  0.51873715  0.31534963  0.14024132     0.00800
Br306      Br  0.50771507  0.10073651  0.04193062    -0.03000
Br307      Br  0.59522414  0.18992047  0.09622549    -0.03800
Br308      Br  0.55750145  0.19463201  0.47095084     0.00100
C309        C  0.49259972  0.96521441  0.11111004     0.01600
C310        C  0.49033979  0.92177927  0.08891563     0.04400
C311        C  0.51010542  0.91885528  0.06719577    -0.11700
C312        C  0.53263783  0.95990713  0.06677209     0.23700
C313        C  0.53478812  0.00209722  0.08920147    -0.12200
C314        C  0.51523410  0.00535582  0.11063168     0.05100
C315        C  0.55334188  0.96267273  0.04294730     0.27500
C316        C  0.58213433  0.95650783  0.04829709    -0.12900
C317        C  0.60128012  0.97472659  0.02804267     0.05600
C318        C  0.59256292  0.00552282  0.00391297    -0.08900
C319        C  0.56504650  0.00084939  0.99593279     0.06400
C320        C  0.54531728  0.97971584  0.01511113    -0.13300
Br321      Br  0.56400447  0.05948790  0.09057508    -0.05300
Br322      Br  0.46144834  0.36998047  0.08929407     0.00300
Br323      Br  0.63949185  0.95434569  0.03224226     0.00700
Br324      Br  0.50784236  0.97885919  0.00192231    -0.03700
Br325      Br  0.52010077  0.06749800  0.13896043     0.00800
Br326      Br  0.50653350  0.85547936  0.03917244    -0.03000
Br327      Br  0.59980253  0.43275947  0.08120696    -0.03800
Br328      Br  0.55535599  0.01748419  0.95749305     0.00100
C329        C  0.97930867  0.27790275  0.11331466     0.01600
C330        C  0.00724847  0.28115987  0.11984458     0.04400
C331        C  0.02698877  0.27648070  0.09864155    -0.11700
C332        C  0.01970052  0.28639872  0.06987359     0.23700
C333        C  0.99099788  0.28331244  0.06333667    -0.12200
C334        C  0.97146035  0.27431896  0.08494244     0.05100
C335        C  0.04226701  0.30558528  0.04911995     0.27500
C336        C  0.06279357  0.34692912  0.05881993    -0.12900
C337        C  0.08660181  0.35723922  0.04325578     0.05600
C338        C  0.08665024  0.34738587  0.01420446    -0.08900
C339        C  0.06522259  0.31157396  0.00289585     0.06400
C340        C  0.04514186  0.28482991  0.02064204    -0.13300
Br341      Br  0.97603460  0.29712556  0.02637139    -0.05300
Br342      Br  0.01880566  0.29559819  0.15791866     0.00300
Br343      Br  0.12046839  0.36531389  0.06338722     0.00700
Br344      Br  0.02574429  0.21547493  0.00503836    -0.03700
Br345      Br  0.93303195  0.26659372  0.07610403     0.00800
Br346      Br  0.06388888  0.25333981  0.11018029    -0.03000
Br347      Br  0.05793619  0.39593620  0.09217456    -0.03800
Br348      Br  0.07441251  0.27457440  0.46272164     0.00100
C349        C  0.87566689  0.28527482  0.24557537     0.01600
C350        C  0.88620675  0.27482242  0.27273943     0.04400
C351        C  0.86842876  0.26873642  0.29577813    -0.11700
C352        C  0.83983078  0.26511220  0.29131853     0.23700
C353        C  0.82936884  0.28413787  0.26523026    -0.12200
C354        C  0.84710986  0.29296513  0.24227475     0.05100
C355        C  0.82130097  0.23131213  0.31142909     0.27500
C356        C  0.81980455  0.16624576  0.31084116    -0.12900
C357        C  0.79643383  0.13162810  0.32291420     0.05600
C358        C  0.78210574  0.17020091  0.34538937    -0.08900
C359        C  0.79232030  0.22966723  0.35196846     0.06400
C360        C  0.80802233  0.26229568  0.33284622    -0.13300
Br361      Br  0.79068853  0.30212726  0.26191116    -0.05300
Br362      Br  0.92486374  0.26279083  0.27806678     0.00300
Br363      Br  0.77636811  0.97099501  0.30624110     0.00700
Br364      Br  0.81457275  0.34831338  0.33900507    -0.03700
Br365      Br  0.83175972  0.31072373  0.20610557     0.00800
Br366      Br  0.88323176  0.26018775  0.33312748    -0.03000
Br367      Br  0.85607307  0.13348452  0.30239459    -0.03800
Br368      Br  0.79195149  0.26189942  0.38977412     0.00100
C369        C  0.85786273  0.29018016  0.13071328     0.01600
C370        C  0.84065930  0.34236261  0.12971222     0.04400
C371        C  0.81671386  0.34140551  0.11280039    -0.11700
C372        C  0.80769617  0.28610849  0.10032383     0.23700
C373        C  0.82191551  0.23306712  0.10728332    -0.12200
C374        C  0.84849171  0.23657691  0.11764780     0.05100
C375        C  0.78664218  0.28345713  0.07717023     0.27500
C376        C  0.75973357  0.30557905  0.08080620    -0.12900
C377        C  0.74318906  0.31752959  0.05713048     0.05600
C378        C  0.75207959  0.29998536  0.03035725    -0.08900
C379        C  0.77477722  0.26085730  0.02824689     0.06400
C380        C  0.79343063  0.25766145  0.05068904    -0.13300
Br381      Br  0.80352459  0.15699913  0.10618179    -0.05300
Br382      Br  0.84871894  0.41349055  0.15193328     0.00300
Br383      Br  0.70764235  0.35425777  0.06107129     0.00700
Br384      Br  0.82886631  0.22279518  0.04310105    -0.03700
Br385      Br  0.87395550  0.17848778  0.10403322     0.00800
Br386      Br  0.79589039  0.41425601  0.10820404    -0.03000
Br387      Br  0.74487063  0.31535399  0.11777661    -0.03800
Br388      Br  0.78473601  0.23036985  0.48292246     0.00100
C389        C  0.98855511  0.52876087  0.10769042     0.01600
C390        C  0.00195719  0.07291821  0.09982713     0.04400
C391        C  0.02924553  0.57688721  0.08795507    -0.11700
C392        C  0.02997758  0.53277193  0.06639612     0.23700
C393        C  0.00918172  0.48753534  0.06539910    -0.12200
C394        C  0.98929723  0.48440265  0.08638433     0.05100
C395        C  0.05265801  0.53095869  0.04549206     0.27500
C396        C  0.04619300  0.53053973  0.01643876    -0.12900
C397        C  0.06434259  0.50244200  0.99764870     0.05600
C398        C  0.09007037  0.48310737  0.00737844    -0.08900
C399        C  0.09937910  0.50285094  0.03359955     0.06400
C400        C  0.08039799  0.52089514  0.05374707    -0.13300
Br401      Br  0.00749696  0.42874880  0.03546357    -0.05300
Br402      Br  0.00916724  0.12940463  0.12978156     0.00300
Br403      Br  0.05739607  0.47198771  0.45068622     0.00700
Br404      Br  0.09362451  0.52260485  0.09205211    -0.03700
Br405      Br  0.96300849  0.41912921  0.08575088     0.00800
Br406      Br  0.03680023  0.14899109  0.06660307    -0.03000
Br407      Br  0.01149798  0.56210640  0.00273672    -0.03800
Br408      Br  0.13822555  0.50555534  0.04129122     0.00100
C409        C  0.87141327  0.53168145  0.10451536     0.01600
C410        C  0.84387032  0.54502034  0.11034328     0.04400
C411        C  0.82345336  0.54021066  0.08947986    -0.11700
C412        C  0.83019708  0.51747222  0.06251367     0.23700
C413        C  0.85828373  0.51378572  0.05553146    -0.12200
C414        C  0.87865626  0.52060003  0.07643525     0.05100
C415        C  0.80878899  0.49033999  0.04320163     0.27500
C416        C  0.81248128  0.43050474  0.03218891    -0.12900
C417        C  0.79298014  0.40588559  0.01378986     0.05600
C418        C  0.76601997  0.42811544  0.01389793    -0.08900
C419        C  0.76154882  0.48674502  0.02585251     0.06400
C420        C  0.78403915  0.52083776  0.03628378    -0.13300
Br421      Br  0.84968491  0.07229098  0.02519720    -0.05300
Br422      Br  0.83299478  0.56453198  0.14756623     0.00300
Br423      Br  0.81003169  0.37488063  0.46356916     0.00700
Br424      Br  0.78224907  0.60908735  0.03486232    -0.03700
Br425      Br  0.90472564  0.05678461  0.06663254     0.00800
Br426      Br  0.78648839  0.56302338  0.09969180    -0.03000
Br427      Br  0.84279609  0.37858603  0.04273076    -0.03800
Br428      Br  0.72529659  0.52015100  0.02945043     0.00100
C429        C  0.87044325  0.03887342  0.22447789     0.01600
C430        C  0.85182384  0.08835036  0.22371173     0.04400
C431        C  0.83035428  0.09146655  0.24308345    -0.11700
C432        C  0.82681246  0.04492856  0.26351805     0.23700
C433        C  0.84401915  0.99332407  0.26176849    -0.12200
C434        C  0.86676776  0.99238987  0.24425876     0.05100
C435        C  0.80825400  0.05367150  0.28857796     0.27500
C436        C  0.81811261  0.03315764  0.32052740    -0.12900
C437        C  0.79676898  0.03488595  0.34579208     0.05600
C438        C  0.76587275  0.05628417  0.33976315    -0.08900
C439        C  0.75608604  0.07836512  0.30902219     0.06400
C440        C  0.77697637  0.07635887  0.28360254    -0.13300
Br441      Br  0.83426128  0.91876072  0.27889418    -0.05300
Br442      Br  0.85484124  0.15229184  0.19581720     0.00300
Br443      Br  0.80812829  0.01816660  0.38356612     0.00700
Br444      Br  0.75922686  0.06554102  0.24760393    -0.03700
Br445      Br  0.89547895  0.43820003  0.25166659     0.00800
Br446      Br  0.80712592  0.16154758  0.24080353    -0.03000
Br447      Br  0.85401207  0.00208278  0.33097944    -0.03800
Br448      Br  0.71998481  0.11116471  0.30347642     0.00100
C449        C  0.99158532  0.27644256  0.23071468     0.01600
C450        C  0.01073661  0.22805249  0.22935221     0.04400
C451        C  0.03288662  0.22574036  0.24823639    -0.11700
C452        C  0.03687758  0.27229917  0.26851245     0.23700
C453        C  0.01890256  0.32237599  0.26841887    -0.12200
C454        C  0.99580247  0.32346196  0.25071108     0.05100
C455        C  0.05947561  0.26728483  0.28993202     0.27500
C456        C  0.05427521  0.26700645  0.31927512    -0.12900
C457        C  0.07524756  0.24973820  0.33788045     0.05600
C458        C  0.09821164  0.21881962  0.32738793    -0.08900
C459        C  0.10489532  0.22608951  0.29908693     0.06400
C460        C  0.08658714  0.25659635  0.28107090    -0.13300
Br461      Br  0.02733343  0.39152217  0.29118469    -0.05300
Br462      Br  0.00808905  0.16552649  0.20097964     0.00300
Br463      Br  0.07268672  0.26904800  0.37730219     0.00700
Br464      Br  0.09813839  0.28037619  0.24406078    -0.03700
Br465      Br  0.96902742  0.38696575  0.25607261     0.00800
Br466      Br  0.05763573  0.15784271  0.24583548    -0.03000
Br467      Br  0.01855653  0.28159002  0.33531047    -0.03800
Br468      Br  0.13881435  0.19400610  0.28515352     0.00100
C469        C  0.09114060  0.08224726  0.32938134     0.01600
C470        C  0.09735317  0.03572334  0.30974733     0.04400
C471        C  0.07629498  0.00957261  0.29280842    -0.11700
C472        C  0.05025948  0.03918182  0.29013121     0.23700
C473        C  0.04510531  0.08724420  0.30952552    -0.12200
C474        C  0.06359239  0.09966649  0.33141054     0.05100
C475        C  0.02870920  0.02361011  0.26761563     0.27500
C476        C  0.03546969  0.01494130  0.23870139    -0.12900
C477        C  0.01458342  0.01013383  0.21811359     0.05600
C478        C  0.98737238  0.02376227  0.22477050    -0.08900
C479        C  0.98038905  0.03289050  0.25286114     0.06400
C480        C  0.00015156  0.02514192  0.27422850    -0.13300
Br481      Br  0.01516326  0.14404877  0.30509261    -0.05300
Br482      Br  0.13447376  0.00747674  0.30538507     0.00300
Br483      Br  0.02316830  0.98787971  0.18003330     0.00700
Br484      Br  0.98647075  0.01402771  0.31213627    -0.03700
Br485      Br  0.04920522  0.12563695  0.36668518     0.00800
Br486      Br  0.08819183  0.43982370  0.27084257    -0.03000
Br487      Br  0.07245590  0.01749869  0.22466088    -0.03800
Br488      Br  0.94684071  0.55254923  0.26399198     0.00100
C489        C  0.11573976  0.18253472  0.85134654     0.02500
C490        C  0.11119304  0.11877565  0.85442889     0.02500
C491        C  0.12739690  0.08619627  0.87394384    -0.18000
C492        C  0.14792195  0.11431784  0.89073519     0.02500
C493        C  0.14931686  0.18324045  0.88945107     0.02500
C494        C  0.13397058  0.21311676  0.86878351    -0.18000
H495        H  0.13586750  0.26250198  0.86634825     0.04500
H496        H  0.12429880  0.03706021  0.87570888     0.04500
O497        O  0.91243910  0.06860240  0.63410124    -0.71600
O498        O  0.96473679  0.06650284  0.69404287    -0.71800
O499        O  0.96712606  0.07294893  0.63708446    -0.71600
O500        O  0.91000435  0.06370933  0.69022421    -0.71600
O501        O  0.91663233  0.44738789  0.69217199    -0.71600
O502        O  0.96934471  0.45831682  0.63381043    -0.71600
O503        O  0.97209508  0.45363613  0.68997283    -0.71600
O504        O  0.91488067  0.45147119  0.63526847    -0.71800
V505        V  0.93873037  0.06603002  0.66392992     1.35200
V506        V  0.94316643  0.45439938  0.66293552     1.35200
C507        C  0.90459722  0.50105441  0.62630772     0.77700
C508        C  0.97391324  0.01611787  0.70350738     0.77700
C509        C  0.97581957  0.51022025  0.62400581     0.77600
C510        C  0.89927600  0.01314871  0.69704152     0.77600
O511        O  0.95564013  0.22015693  0.64154232    -0.71600
O512        O  0.91026345  0.21195729  0.70646668    -0.71800
O513        O  0.90024954  0.21949812  0.65115386    -0.71600
O514        O  0.96435192  0.21342902  0.69739361    -0.71600
O515        O  0.96280688  0.31211233  0.70186221    -0.71600
O516        O  0.90227522  0.31907060  0.65147777    -0.71600
O517        O  0.90760199  0.31119271  0.70687279    -0.71600
O518        O  0.95796976  0.31918804  0.64607181    -0.71800
V519        V  0.93258222  0.21807964  0.67399310     1.35200
V520        V  0.93264006  0.31347422  0.67645735     1.35200
C521        C  0.96584388  0.27081899  0.63365919     0.77700
C522        C  0.90117805  0.26039058  0.71775981     0.77700
C523        C  0.89006886  0.27060868  0.64384854     0.77600
C524        C  0.97440195  0.26190336  0.70798958     0.77600
C525        C  0.11249976  0.43908592  0.48372478     0.02500
C526        C  0.11374536  0.37549301  0.48997593     0.02500
C527        C  0.12674475  0.34146010  0.98057668    -0.18000
C528        C  0.14561512  0.36672972  0.96121813     0.02500
C529        C  0.14535216  0.43498823  0.95778102     0.02500
C530        C  0.12579059  0.46855973  0.97252472    -0.18000
H531        H  0.12436912  0.51769573  0.97008954     0.04500
H532        H  0.12623537  0.29210157  0.98352603     0.04500
C533        C  0.66991450  0.16728095  0.94132102     0.86700
C534        C  0.68100058  0.22215437  0.95890143    -0.53500
C535        C  0.69801739  0.26350690  0.94492179     0.09600
C536        C  0.70279965  0.24179512  0.91342735     0.20600
C537        C  0.65681155  0.20373137  0.91597800    -0.54200
C538        C  0.67330785  0.24781605  0.90315297     0.09700
C539        C  0.69673716  0.13889617  0.93250307    -0.53800
C540        C  0.71024899  0.16784941  0.91224794     0.10300
H541        H  0.67593325  0.22803381  0.98080254     0.14800
H542        H  0.71723194  0.27160827  0.90192783     0.00600
H543        H  0.63542944  0.19834371  0.91043747     0.15100
H544        H  0.70361358  0.09499547  0.94052060     0.14900
C545        C  0.69962544  0.00703146  0.89866155     0.86700
C546        C  0.71571435  0.47181026  0.92263529    -0.53500
C547        C  0.70020342  0.42823496  0.93626244     0.09600
C548        C  0.67021991  0.43380905  0.92707091     0.20600
C549        C  0.68984302  0.45168135  0.88060757    -0.54200
C550        C  0.67324882  0.41152016  0.89590831     0.09700
C551        C  0.67452638  0.03663742  0.90939027    -0.53800
C552        C  0.66237129  0.00727286  0.93004709     0.10300
H553        H  0.73743755  0.47688309  0.92681446     0.14800
H554        H  0.65637260  0.40439981  0.93945032     0.00600
H555        H  0.69364272  0.44535042  0.85844908     0.15100
H556        H  0.66715138  0.08016965  0.90139428     0.14900
C557        C  0.64762928  0.04851080  0.95147119     0.02500
C558        C  0.65002876  0.11714981  0.95571896     0.02500
C559        C  0.63174379  0.14326105  0.97522594    -0.18000
C560        C  0.60887434  0.13442291  0.49994425     0.02500
C561        C  0.60828574  0.06978715  0.49712593     0.02500
C562        C  0.62899857  0.01573705  0.96804961    -0.18000
H563        H  0.62685068  0.96660891  0.96534139     0.04500
H564        H  0.63145861  0.19258033  0.97816279     0.04500
C565        C  0.66291317  0.29268685  0.88057685     0.02500
C566        C  0.65714286  0.35947973  0.88158972     0.02500
C567        C  0.63655517  0.38269660  0.86308032    -0.18000
C568        C  0.62450660  0.34682528  0.84145886     0.02500
C569        C  0.63379155  0.28730182  0.83928230     0.02500
C570        C  0.65208664  0.26032830  0.85781691    -0.18000
H571        H  0.65516634  0.21099119  0.85630540     0.04500
H572        H  0.62960411  0.42915353  0.86647965     0.04500
C573        C  0.25684671  0.40071621  0.86092797     0.02500
C574        C  0.26327953  0.35162917  0.87777764     0.02500
C575        C  0.24595202  0.33036548  0.89823541    -0.18000
C576        C  0.22155584  0.36100025  0.90359236     0.02500
C577        C  0.21921754  0.42598641  0.89356480     0.02500
C578        C  0.23738665  0.44313500  0.87173476    -0.18000
H579        H  0.23565624  0.48842308  0.86262324     0.04500
H580        H  0.24961976  0.28499272  0.90689275     0.04500
C581        C  0.20104915  0.47852948  0.90736853     0.86700
C582        C  0.18328038  0.02448376  0.88979966    -0.53500
C583        C  0.16695523  0.06525421  0.90528681     0.09600
C584        C  0.16866893  0.04822506  0.93753938     0.20600
C585        C  0.21546021  0.01965722  0.92888253    -0.54200
C586        C  0.19966175  0.06213166  0.94356714     0.09700
C587        C  0.17926052  0.44462606  0.92193290    -0.53800
C588        C  0.16441181  0.47479777  0.94004690     0.10300
H589        H  0.18428377  0.02631459  0.86715562     0.14800
H590        H  0.15447061  0.07360137  0.95121497     0.00600
H591        H  0.23757243  0.01901498  0.93073463     0.15100
H592        H  0.17022614  0.40465984  0.91230655     0.14900
C593        C  0.21321698  0.11175970  0.96367013     0.02500
C594        C  0.21283201  0.18119745  0.96446371     0.02500
C595        C  0.23183867  0.21184959  0.98179249    -0.18000
C596        C  0.25051979  0.18041691  0.99860249     0.02500
C597        C  0.24974026  0.11572647  0.99942027     0.02500
C598        C  0.23142619  0.08316452  0.98248185    -0.18000
H599        H  0.23215392  0.03338526  0.98349358     0.04500
H600        H  0.23236863  0.26150299  0.98240067     0.04500
C601        C  0.16430497  0.23110673  0.90873850     0.86700
C602        C  0.14653959  0.27743502  0.92582939    -0.53500
C603        C  0.16082641  0.31615822  0.94398467     0.09600
C604        C  0.19234326  0.29943946  0.94397260     0.20600
C605        C  0.18594601  0.27495890  0.89496964    -0.54200
C606        C  0.19962201  0.31451942  0.91319519     0.09700
C607        C  0.17835569  0.19574864  0.93023136    -0.53800
C608        C  0.19506823  0.22492643  0.94708372     0.10300
H609        H  0.12455899  0.28056565  0.92306279     0.14800
H610        H  0.20443571  0.32685365  0.95921041     0.00600
H611        H  0.18917387  0.27615505  0.87257905     0.15100
H612        H  0.16795835  0.15950592  0.93918659     0.14900
O613        O  0.45886911  0.02730461  0.65168673    -0.71600
O614        O  0.39860880  0.04340906  0.70286302    -0.71800
O615        O  0.45440635  0.02869427  0.70831772    -0.71600
O616        O  0.40403149  0.04180272  0.64711906    -0.71600
O617        O  0.39992001  0.44613736  0.64660062    -0.71600
O618        O  0.45173903  0.43324353  0.70662760    -0.71600
O619        O  0.39558516  0.44762009  0.70191007    -0.71600
O620        O  0.45490500  0.43248766  0.64992702    -0.71800
V621        V  0.42901004  0.03332670  0.67760741     1.35200
V622        V  0.42572821  0.44178925  0.67647905     1.35200
C623        C  0.46617456  0.97597413  0.64140490     0.77700
C624        C  0.38667892  0.49973246  0.70964411     0.77700
C625        C  0.46392809  0.48024319  0.71630158     0.77600
C626        C  0.39164571  0.99496295  0.63774283     0.77600
O627        O  0.45482947  0.27951428  0.65008991    -0.71600
O628        O  0.40940439  0.29361525  0.71367341    -0.71800
O629        O  0.46199556  0.27838346  0.70575677    -0.71600
O630        O  0.40016142  0.29695006  0.65723489    -0.71600
O631        O  0.39795924  0.19786676  0.65325782    -0.71600
O632        O  0.45301943  0.18111593  0.70960702    -0.71600
O633        O  0.39980061  0.19636732  0.71057998    -0.71600
O634        O  0.45277924  0.18041246  0.65356897    -0.71800
V635        V  0.43134879  0.28542195  0.68150449     1.35200
V636        V  0.42580890  0.19068730  0.68153270     1.35200
C637        C  0.46327050  0.22718069  0.64235728     0.77700
C638        C  0.39776583  0.24673171  0.72355896     0.77700
C639        C  0.46677771  0.22735788  0.71732312     0.77600
C640        C  0.38910988  0.25033688  0.64593567     0.77600
C641        C  0.76211807  0.11646514  0.85402469     0.02500
C642        C  0.75483541  0.05645075  0.85025167     0.02500
C643        C  0.73498582  0.02662226  0.86474757    -0.18000
C644        C  0.71896027  0.05637106  0.88450630     0.02500
C645        C  0.72410219  0.12448779  0.88950097     0.02500
C646        C  0.74487992  0.15189529  0.87232927    -0.18000
H647        H  0.74757812  0.20101668  0.87362190     0.04500
H648        H  0.73243210  0.97816708  0.86019704     0.04500
C649        C  0.74402035  0.39165124  0.99925446     0.02500
C650        C  0.73989994  0.32884112  0.00488248     0.02500
C651        C  0.72460184  0.29315128  0.98616699    -0.18000
C652        C  0.71176979  0.31672429  0.96172160     0.02500
C653        C  0.71288698  0.38463508  0.95811771     0.02500
C654        C  0.72956632  0.41832142  0.97716213    -0.18000
H655        H  0.73220696  0.46733142  0.97440023     0.04500
H656        H  0.72319928  0.24457758  0.99085604     0.04500
C657        C  0.36847034  0.25607195  0.62253779     0.01600
C658        C  0.37492279  0.23204002  0.59626022     0.04400
C659        C  0.35423893  0.22094278  0.57631965    -0.11700
C660        C  0.32875345  0.25227906  0.57782843     0.23700
C661        C  0.32530257  0.29053381  0.60143748    -0.12200
C662        C  0.34249304  0.28369825  0.62501190     0.05100
C663        C  0.30618142  0.24368976  0.55593073     0.27500
C664        C  0.31231468  0.24536004  0.52671825    -0.12900
C665        C  0.29266886  0.22715932  0.50665314     0.05600
C666        C  0.26716619  0.20538746  0.51507196    -0.08900
C667        C  0.25903993  0.21364571  0.54278603     0.06400
C668        C  0.27816347  0.23209714  0.56342084    -0.13300
Br669      Br  0.30025630  0.35847046  0.60118553    -0.05300
Br670      Br  0.41231127  0.22508423  0.58541991     0.00300
Br671      Br  0.30084292  0.24995462  0.97012834     0.00700
Br672      Br  0.26375386  0.23742681  0.60113001    -0.03700
Br673      Br  0.32614617  0.29915119  0.65994683     0.00800
Br674      Br  0.36133229  0.15549563  0.55086633    -0.03800
Br675      Br  0.34699710  0.27329886  0.51237839    -0.03800
Br676      Br  0.22079073  0.20331849  0.55153615     0.00100
C677        C  0.36920110  0.00092420  0.61662586     0.01600
C678        C  0.35001709  0.04910393  0.61889869     0.04400
C679        C  0.32890986  0.05503944  0.59892798    -0.11700
C680        C  0.32655231  0.01409982  0.57614518     0.23700
C681        C  0.34401772  0.96309842  0.57552853    -0.12200
C682        C  0.36778986  0.45964409  0.59373938     0.05100
C683        C  0.30647777  0.02581206  0.55268904     0.27500
C684        C  0.27794004  0.02405510  0.55739281    -0.12900
C685        C  0.25962345  0.04678058  0.53704291     0.05600
C686        C  0.26953607  0.07103747  0.51188998    -0.08900
C687        C  0.29717996  0.06255189  0.50509636     0.06400
C688        C  0.31573889  0.04026522  0.52535742    -0.13300
Br689      Br  0.34096606  0.40216357  0.54656396    -0.05300
Br690      Br  0.35044563  0.10410344  0.65080411     0.00300
Br691      Br  0.22076249  0.04278981  0.54299069     0.00700
Br692      Br  0.35343371  0.02853562  0.51451660    -0.03700
Br693      Br  0.39281323  0.39214579  0.59038128     0.00800
Br694      Br  0.30253047  0.11779140  0.60411245    -0.03000
Br695      Br  0.26343478  0.98986803  0.59131251    -0.03800
Br696      Br  0.30424886  0.08363613  0.96882522     0.00100
C697        C  0.27109294  0.40440085  0.83229030     0.01600
C698        C  0.25803964  0.44031987  0.81157589     0.04400
C699        C  0.27273854  0.46623640  0.78987163    -0.11700
C700        C  0.29987833  0.44947688  0.78571319     0.23700
C701        C  0.31220753  0.40352142  0.80364411    -0.12200
C702        C  0.29642848  0.36825351  0.82518700     0.05100
C703        C  0.31618733  0.48193441  0.76299603     0.27500
C704        C  0.31359487  0.46767943  0.73409336    -0.12900
C705        C  0.33545309  0.48083882  0.71561432     0.05600
C706        C  0.36039270  0.50487621  0.72610967    -0.08900
C707        C  0.35978944  0.53121355  0.75302672     0.06400
C708        C  0.33710932  0.52301771  0.77074894    -0.13300
Br709      Br  0.35192102  0.40288452  0.79878669    -0.05300
Br710      Br  0.21858349  0.44514083  0.80960024     0.00300
Br711      Br  0.33140028  0.46420563  0.67620506     0.00700
Br712      Br  0.33593513  0.56079767  0.80723480    -0.03700
Br713      Br  0.31472481  0.22260152  0.86144869     0.00800
Br714      Br  0.25304094  0.02949012  0.76954730    -0.03000
Br715      Br  0.28034360  0.43268113  0.71914111    -0.03800
Br716      Br  0.39086317  0.57255643  0.76695132     0.00100
C717        C  0.28372477  0.31422693  0.86627623     0.01600
C718        C  0.31496935  0.33786662  0.86895146     0.04400
C719        C  0.33638012  0.32054384  0.84457662    -0.11700
C720        C  0.32571200  0.28096835  0.81703099     0.23700
C721        C  0.29444089  0.25915714  0.81517143    -0.12200
C722        C  0.27364124  0.27577145  0.83924584     0.05100
C723        C  0.34370696  0.26218324  0.79332338     0.27500
C724        C  0.33631081  0.28147384  0.76601355    -0.12900
C725        C  0.35596724  0.28322494  0.74539322     0.05600
C726        C  0.38043623  0.25211334  0.74838110    -0.08900
C727        C  0.38750286  0.22687617  0.77450018     0.06400
C728        C  0.36906631  0.23142373  0.79706762    -0.13300
Br729      Br  0.28543735  0.18811920  0.79255912    -0.05300
Br730      Br  0.32600739  0.38466732  0.90109133     0.00300
Br731      Br  0.35282905  0.34259237  0.71685311     0.00700
Br732      Br  0.37739863  0.18742483  0.83094674    -0.03700
Br733      Br  0.23651856  0.24829033  0.83608443     0.00800
Br734      Br  0.37458869  0.33361532  0.85337510    -0.03000
Br735      Br  0.30018542  0.30803620  0.75494502    -0.03800
Br736      Br  0.42380841  0.19494450  0.78043167     0.00100
C737        C  0.59946894  0.36575806  0.82305934     0.01600
C738        C  0.58177342  0.32055366  0.80695500     0.04400
C739        C  0.56245978  0.35438366  0.78777439    -0.11700
C740        C  0.55270597  0.41514353  0.79409641     0.23700
C741        C  0.56799198  0.44913937  0.81339423    -0.12200
C742        C  0.59379104  0.42893621  0.82128797     0.05100
C743        C  0.53046993  0.44674046  0.77627025     0.27500
C744        C  0.53597605  0.46172929  0.74801460    -0.12900
C745        C  0.51440261  0.47028817  0.72851726     0.05600
C746        C  0.48698621  0.47402798  0.73735107    -0.08900
C747        C  0.48204582  0.47182225  0.76635956     0.06400
C748        C  0.50340961  0.45845129  0.78579106    -0.13300
Br749      Br  0.55213242  0.03289681  0.82726925    -0.05300
Br750      Br  0.59135293  0.15193289  0.81258842     0.00300
Br751      Br  0.52285694  0.47230365  0.68947307     0.00700
Br752      Br  0.49481779  0.46208987  0.82513451    -0.03700
Br753      Br  0.62307100  0.48790325  0.81804976     0.00800
Br754      Br  0.55252070  0.32999075  0.74947556    -0.03000
Br755      Br  0.57353614  0.47112198  0.73601528    -0.03800
Br756      Br  0.44551569  0.48403707  0.77946720     0.00100
C757        C  0.61414583  0.25084782  0.82611449     0.01600
C758        C  0.61420303  0.24631153  0.79241421     0.04400
C759        C  0.58572324  0.23431227  0.77605580    -0.11700
C760        C  0.55686631  0.22932515  0.79396511     0.23700
C761        C  0.55771441  0.23502321  0.82746231    -0.12200
C762        C  0.58582459  0.24616166  0.84347705     0.05100
C763        C  0.52973258  0.21836312  0.78011846     0.27500
C764        C  0.50760834  0.26009538  0.78332207    -0.12900
C765        C  0.48721038  0.26383443  0.76249912     0.05600
C766        C  0.48734394  0.22235916  0.73992239    -0.08900
C767        C  0.50635772  0.17425992  0.73999934     0.06400
C768        C  0.52703661  0.17169709  0.76022766    -0.13300
Br769      Br  0.52874884  0.19941756  0.84927314    -0.05300
Br770      Br  0.64787449  0.25462567  0.77260523     0.00300
Br771      Br  0.45907800  0.32566584  0.76508341     0.00700
Br772      Br  0.54992049  0.10116587  0.76219029    -0.03700
Br773      Br  0.58533310  0.25666373  0.88340943     0.00800
Br774      Br  0.58915702  0.21211957  0.73689739    -0.03000
Br775      Br  0.50462187  0.31424649  0.81482290    -0.03800
Br776      Br  0.50581604  0.11401188  0.71142052     0.00100
C777        C  0.48556063  0.22114601  0.62146446     0.01600
C778        C  0.48477873  0.17538937  0.60053531     0.04400
C779        C  0.50588108  0.17137952  0.58072098    -0.11700
C780        C  0.52812256  0.21312224  0.58082941     0.23700
C781        C  0.52873225  0.25844419  0.60217298    -0.12200
C782        C  0.50844608  0.26046483  0.62296435     0.05100
C783        C  0.55087129  0.20632596  0.55953761     0.27500
C784        C  0.57825395  0.19253614  0.56803082    -0.12900
C785        C  0.59748126  0.17214412  0.54819695     0.05600
C786        C  0.59021479  0.16629107  0.51983759    -0.08900
C787        C  0.56480615  0.18877344  0.51064790     0.06400
C788        C  0.54501316  0.20769359  0.53020028    -0.13300
Br789      Br  0.55593452  0.32150769  0.60273610    -0.05300
Br790      Br  0.45598740  0.11431327  0.59963348     0.00300
Br791      Br  0.63440059  0.15309775  0.55965106     0.00700
Br792      Br  0.50966477  0.23228990  0.51566217    -0.03700
Br793      Br  0.51366011  0.31349253  0.65515397     0.00800
Br794      Br  0.50395761  0.10623074  0.55405112    -0.03000
Br795      Br  0.59079587  0.19817009  0.60658093    -0.03800
Br796      Br  0.56449967  0.17415772  0.96047563     0.00100
C797        C  0.48927047  0.97180210  0.61973189     0.01600
C798        C  0.48973274  0.92683513  0.59801825     0.04400
C799        C  0.51067653  0.92643488  0.57731192    -0.11700
C800        C  0.53209425  0.97006321  0.57751553     0.23700
C801        C  0.53277518  0.01099213  0.60043050    -0.12200
C802        C  0.51136360  0.01405578  0.62011917     0.05100
C803        C  0.55250731  0.97753121  0.55339983     0.27500
C804        C  0.58140742  0.97516740  0.55809920    -0.12900
C805        C  0.59972095  0.00173511  0.53881744     0.05600
C806        C  0.58978976  0.03063635  0.51456847    -0.08900
C807        C  0.56243625  0.02056835  0.50672837     0.06400
C808        C  0.54368514  0.99501511  0.52590802    -0.13300
Br809      Br  0.56312602  0.06490923  0.60536358    -0.05300
Br810      Br  0.46321923  0.36647096  0.59608488     0.00300
Br811      Br  0.63878859  0.99597893  0.54466126     0.00700
Br812      Br  0.50632050  0.98590197  0.51298320    -0.03700
Br813      Br  0.51298315  0.08004166  0.64653476     0.00800
Br814      Br  0.51150291  0.86198092  0.55011462    -0.03000
Br815      Br  0.59646875  0.44029403  0.59576642    -0.03800
Br816      Br  0.55157520  0.03642320  0.46855061     0.00100
C817        C  0.98746239  0.27342971  0.61135187     0.01600
C818        C  0.01505385  0.28326830  0.61864199     0.04400
C819        C  0.03569022  0.28141704  0.59802350    -0.11700
C820        C  0.02886870  0.28467327  0.56875749     0.23700
C821        C  0.00071842  0.27514928  0.56168076    -0.12200
C822        C  0.98105682  0.26436561  0.58286710     0.05100
C823        C  0.05080129  0.30380882  0.54732269     0.27500
C824        C  0.06895632  0.35209982  0.55461572    -0.12900
C825        C  0.09230905  0.36435613  0.53846417     0.05600
C826        C  0.09356094  0.34609179  0.51020142    -0.08900
C827        C  0.07437339  0.30148334  0.50127963     0.06400
C828        C  0.05527394  0.27580293  0.52045048    -0.13300
Br829      Br  0.98673000  0.28106910  0.52392107    -0.05300
Br830      Br  0.02502657  0.29668412  0.65731472     0.00300
Br831      Br  0.12514496  0.38734582  0.55793535     0.00700
Br832      Br  0.03896246  0.19897222  0.50932111    -0.03700
Br833      Br  0.94495872  0.23756425  0.57275382     0.00800
Br834      Br  0.07330522  0.27136998  0.61112028    -0.03000
Br835      Br  0.06131181  0.40578655  0.58576205    -0.03800
Br836      Br  0.06393487  0.29798915  0.96295241     0.00100
C837        C  0.88469114  0.25709205  0.74388894     0.01600
C838        C  0.89594879  0.22938164  0.76805475     0.04400
C839        C  0.87974699  0.22137993  0.79202995    -0.11700
C840        C  0.85113611  0.22874975  0.78993921     0.23700
C841        C  0.84095153  0.26570337  0.76806291    -0.12200
C842        C  0.85822719  0.28293490  0.74580714     0.05100
C843        C  0.83163880  0.19394287  0.80849646     0.27500
C844        C  0.82619067  0.13082342  0.80371944    -0.12900
C845        C  0.80079331  0.10037041  0.81355499     0.05600
C846        C  0.78788795  0.13766706  0.83741990    -0.08900
C847        C  0.80186683  0.18996008  0.84829049     0.06400
C848        C  0.82119621  0.22108083  0.83241212    -0.13300
Br849      Br  0.80380783  0.29480589  0.76947222    -0.05300
Br850      Br  0.93368675  0.20412775  0.76883695     0.00300
Br851      Br  0.77255777  0.95183191  0.78828851     0.00700
Br852      Br  0.83725585  0.29610465  0.84628557    -0.03700
Br853      Br  0.84641935  0.34612833  0.72038671     0.00800
Br854      Br  0.89651844  0.20160875  0.82754165    -0.03000
Br855      Br  0.86046482  0.09013366  0.79403258    -0.03800
Br856      Br  0.80006692  0.21225769  0.88749226     0.00100
C857        C  0.86530444  0.27349795  0.62562675     0.01600
C858        C  0.86701581  0.29936754  0.59889490     0.04400
C859        C  0.84480238  0.29522985  0.58020544    -0.11700
C860        C  0.82004429  0.26641073  0.58817320     0.23700
C861        C  0.81856355  0.24024696  0.61493737    -0.12200
C862        C  0.84004078  0.24899779  0.63411902     0.05100
C863        C  0.79578592  0.26818274  0.56891476     0.27500
C864        C  0.77236053  0.30405554  0.57515485    -0.12900
C865        C  0.75616526  0.32682422  0.55306406     0.05600
C866        C  0.76311314  0.31320118  0.52526295    -0.08900
C867        C  0.78169517  0.26552428  0.51989655     0.06400
C868        C  0.79803243  0.24316481  0.54180554    -0.13300
Br869      Br  0.78859589  0.18767808  0.62532081    -0.05300
Br870      Br  0.89877627  0.34592502  0.58862519     0.00300
Br871      Br  0.72354624  0.37369902  0.56061832     0.00700
Br872      Br  0.82519069  0.18241058  0.53411838    -0.03700
Br873      Br  0.83075236  0.24669643  0.67258719     0.00800
Br874      Br  0.84976582  0.32671872  0.54324825    -0.03000
Br875      Br  0.76195827  0.32440863  0.61302004    -0.03800
Br876      Br  0.78025217  0.21113736  0.99512356     0.00100
C877        C  0.99461451  0.51647449  0.60031456     0.01600
C878        C  0.01659963  0.07639059  0.60077431     0.04400
C879        C  0.03158580  0.57113279  0.57764661    -0.11700
C880        C  0.03177485  0.52842997  0.55561936     0.23700
C881        C  0.01087347  0.48309319  0.55470649    -0.12200
C882        C  0.99218797  0.47789796  0.57679062     0.05100
C883        C  0.05473502  0.52770882  0.53498664     0.27500
C884        C  0.04880772  0.52383272  0.50597508    -0.12900
C885        C  0.06751457  0.49416507  0.48834066     0.05600
C886        C  0.09381855  0.48102982  0.49856003    -0.08900
C887        C  0.10241753  0.50809406  0.52365317     0.06400
C888        C  0.08281484  0.52410421  0.54352782    -0.13300
Br889      Br  0.00789070  0.42525346  0.52436597    -0.05300
Br890      Br  0.02076977  0.13530097  0.62996806     0.00300
Br891      Br  0.05416801  0.49015609  0.95902701     0.00700
Br892      Br  0.09640627  0.53229763  0.58168834    -0.03700
Br893      Br  0.96261657  0.41953591  0.57415717     0.00800
Br894      Br  0.05661672  0.15079342  0.57264426    -0.03000
Br895      Br  0.01521945  0.55704593  0.49067667    -0.03800
Br896      Br  0.14079905  0.52408073  0.53009803     0.00100
C897        C  0.88456822  0.50090865  0.60266717     0.01600
C898        C  0.85951388  0.47055540  0.60554737     0.04400
C899        C  0.84078045  0.46854645  0.58304939    -0.11700
C900        C  0.84684168  0.49535697  0.55673633     0.23700
C901        C  0.87163922  0.52861657  0.55440238    -0.12200
C902        C  0.89024446  0.53157109  0.57732433     0.05100
C903        C  0.82583189  0.49032029  0.53328053     0.27500
C904        C  0.82920518  0.45043633  0.51008418    -0.12900
C905        C  0.80590440  0.42501488  0.49652517     0.05600
C906        C  0.77936647  0.43923493  0.50600760    -0.08900
C907        C  0.77632845  0.48881264  0.52464607     0.06400
C908        C  0.79956062  0.51518592  0.53737536    -0.13300
Br909      Br  0.87445627  0.08287888  0.51858977    -0.05300
Br910      Br  0.85030889  0.43422213  0.64115142     0.00300
Br911      Br  0.80528563  0.35385500  0.98394409     0.00700
Br912      Br  0.79528458  0.58349430  0.56173770    -0.03700
Br913      Br  0.92223485  0.08334461  0.56778602     0.00800
Br914      Br  0.80604639  0.43109292  0.58950720    -0.03000
Br915      Br  0.86505677  0.43251506  0.49566525    -0.03800
Br916      Br  0.74051617  0.52031439  0.53343256     0.00100
C917        C  0.87361320  0.01303439  0.71395647     0.01600
C918        C  0.85504681  0.06201580  0.71136427     0.04400
C919        C  0.83397202  0.07020127  0.73102254    -0.11700
C920        C  0.82695755  0.02145710  0.74938942     0.23700
C921        C  0.84096352  0.96558756  0.74529534    -0.12200
C922        C  0.86618062  0.96435843  0.73147535     0.05100
C923        C  0.80868528  0.02974376  0.77484123     0.27500
C924        C  0.81724704  0.99809635  0.80511467    -0.12900
C925        C  0.79621454  0.99861595  0.83079681     0.05600
C926        C  0.76659367  0.02948626  0.82668530    -0.08900
C927        C  0.75800386  0.06180250  0.79737279     0.06400
C928        C  0.77887536  0.06188315  0.77168712    -0.13300
Br929      Br  0.82307781  0.88911384  0.75155558    -0.05300
Br930      Br  0.85586999  0.11100302  0.67820673     0.00300
Br931      Br  0.80563860  0.96295188  0.86625226     0.00700
Br932      Br  0.76212987  0.07426588  0.73550699    -0.03700
Br933      Br  0.91591188  0.39820115  0.75236662     0.00800
Br934      Br  0.81813983  0.15044244  0.73323249    -0.03000
Br935      Br  0.85025573  0.95037201  0.81107671    -0.03800
Br936      Br  0.72228245  0.09741971  0.79340744     0.00100
C937        C  0.99933818  0.26050899  0.72674247     0.01600
C938        C  0.01854557  0.21191386  0.72574351     0.04400
C939        C  0.04106017  0.21024313  0.74442095    -0.11700
C940        C  0.04554704  0.25871804  0.76352694     0.23700
C941        C  0.02917579  0.31034988  0.76126600    -0.12200
C942        C  0.00524451  0.30960347  0.74517596     0.05100
C943        C  0.06623043  0.25514232  0.78673317     0.27500
C944        C  0.05900995  0.26492158  0.81532303    -0.12900
C945        C  0.07860352  0.25404178  0.83626887     0.05600
C946        C  0.10166641  0.21890366  0.82956053    -0.08900
C947        C  0.11041142  0.21686021  0.80168595     0.06400
C948        C  0.09376905  0.24230713  0.78072627    -0.13300
Br949      Br  0.04127090  0.38323060  0.77914528    -0.05300
Br950      Br  0.01565525  0.14866439  0.69831785     0.00300
Br951      Br  0.07404007  0.28710843  0.87355434     0.00700
Br952      Br  0.10893893  0.26411517  0.74501912    -0.03700
Br953      Br  0.97980876  0.37226665  0.75289593     0.00800
Br954      Br  0.06591237  0.14226128  0.74295977    -0.03000
Br955      Br  0.02266096  0.28808404  0.82756088    -0.03800
Br956      Br  0.14477072  0.17966068  0.79235355     0.00100
C957        C  0.09024229  0.08581505  0.83645321     0.01600
C958        C  0.09710501  0.03508325  0.81956666     0.04400
C959        C  0.07667190  0.00563442  0.80325348    -0.11700
C960        C  0.05151222  0.03596746  0.79677068     0.23700
C961        C  0.04574718  0.08916298  0.81293696    -0.12200
C962        C  0.06293569  0.10607197  0.83541438     0.05100
C963        C  0.03162290  0.01616340  0.77339981     0.27500
C964        C  0.04045840  0.00270069  0.74557070    -0.12900
C965        C  0.02138116  0.00074270  0.72304618     0.05600
C966        C  0.99362691  0.01426190  0.72743400    -0.08900
C967        C  0.98434215  0.02219661  0.75490434     0.06400
C968        C  0.00274930  0.01859952  0.77778474    -0.13300
Br969      Br  0.01613699  0.14412749  0.80371230    -0.05300
Br970      Br  0.13422997  0.00494182  0.81823555     0.00300
Br971      Br  0.03332890  0.98346305  0.68535943     0.00700
Br972      Br  0.98741452  0.01265169  0.81509221    -0.03700
Br973      Br  0.04692295  0.14419630  0.86759205     0.00800
Br974      Br  0.10231632  0.44524434  0.77784253    -0.03000
Br975      Br  0.07842066  0.98982033  0.73636916    -0.03800
Br976      Br  0.95663342  0.53044408  0.75741297     0.00100
C977        C  0.12006083  0.68216383  0.34280275     0.02500
C978        C  0.11584661  0.61800912  0.34467951     0.02500
C979        C  0.13281703  0.58377944  0.36285901    -0.18000
C980        C  0.15333821  0.61080257  0.38005788     0.02500
C981        C  0.15503565  0.67979879  0.37934961     0.02500
C982        C  0.13963425  0.71091382  0.35923920    -0.18000
H983        H  0.14144028  0.76052520  0.35755637     0.04500
H984        H  0.12987957  0.53445637  0.36367258     0.04500
O985        O  0.89949947  0.57941879  0.14038094    -0.71600
O986        O  0.96027583  0.57723339  0.19118449    -0.71800
O987        O  0.95452508  0.57766691  0.13530334    -0.71600
O988        O  0.90562734  0.58223130  0.19597966    -0.71600
O989        O  0.89932659  0.98302921  0.19301140    -0.71600
O990        O  0.95517862  0.97707096  0.13802493    -0.71600
O991        O  0.95433816  0.97716457  0.19444845    -0.71600
O992        O  0.89992648  0.98010541  0.13703434    -0.71800
V993        V  0.92998069  0.57757068  0.16567451     1.35200
V994        V  0.92732390  0.98105433  0.16562169     1.35200
C995        C  0.88913554  0.03017487  0.12948974     0.77700
C996        C  0.96697125  0.52733179  0.20303188     0.77700
C997        C  0.96306929  0.02617061  0.12638420     0.77600
C998        C  0.89238527  0.53503694  0.20273963     0.77600
O999        O  0.95590936  0.72687928  0.15077299    -0.71600
O1000       O  0.90372706  0.73038370  0.21059257    -0.71800
O1001       O  0.90084451  0.72505447  0.15349692    -0.71600
O1002       O  0.95812631  0.73065915  0.20725471    -0.71600
O1003       O  0.95705390  0.82995656  0.20719733    -0.71600
O1004       O  0.90207663  0.82417575  0.15014154    -0.71600
O1005       O  0.90124399  0.82924008  0.20702724    -0.71600
O1006       O  0.95696248  0.82653659  0.15104433    -0.71800
V1007       V  0.92955454  0.73013212  0.18046401     1.35200
V1008       V  0.92920935  0.82560629  0.17897883     1.35200
C1009       C  0.96579721  0.77644672  0.14116227     0.77700
C1010       C  0.89341824  0.78052683  0.21903616     0.77700
C1011       C  0.89222669  0.77341856  0.14182906     0.77600
C1012       C  0.96782183  0.78076648  0.21615869     0.77600
C1013       C  0.10520363  0.94024074  0.98893976     0.02500
C1014       C  0.10916899  0.87866615  0.99747356     0.02500
C1015       C  0.13495994  0.83660919  0.47347279    -0.18000
C1016       C  0.15197904  0.86176910  0.45261375     0.02500
C1017       C  0.15087342  0.92987414  0.44898391     0.02500
C1018       C  0.13234471  0.96347498  0.46512502    -0.18000
H1019       H  0.13012358  0.01232188  0.46225737     0.04500
H1020       H  0.13536434  0.78740147  0.47694794     0.04500
C1021       C  0.66639989  0.69270020  0.45252741     0.86700
C1022       C  0.67832881  0.74709297  0.46999432    -0.53500
C1023       C  0.69457335  0.78857450  0.45507876     0.09600
C1024       C  0.69816836  0.76762736  0.42374252     0.20600
C1025       C  0.65227300  0.73016448  0.42798232    -0.54200
C1026       C  0.66857359  0.77441851  0.41504448     0.09700
C1027       C  0.69271308  0.66450272  0.44236590    -0.53800
C1028       C  0.70532733  0.69439807  0.42189730     0.10300
H1029       H  0.67452775  0.75239820  0.49220912     0.14800
H1030       H  0.71221081  0.79762368  0.41184074     0.00600
H1031       H  0.63077695  0.72488296  0.42291284     0.15100
H1032       H  0.70003511  0.62046508  0.44979194     0.14900
C1033       C  0.69459181  0.53499166  0.40684822     0.86700
C1034       C  0.71156402  0.99621730  0.43089335    -0.53500
C1035       C  0.69703924  0.95258538  0.44572380     0.09600
C1036       C  0.66633882  0.95880719  0.43902594     0.20600
C1037       C  0.68207517  0.97879920  0.39121197    -0.54200
C1038       C  0.66668207  0.93794754  0.40734573     0.09700
C1039       C  0.66995788  0.56255555  0.41950651    -0.53800
C1040       C  0.65973032  0.53193995  0.44089850     0.10300
H1041       H  0.73359376  0.00054958  0.43289659     0.14800
H1042       H  0.65355044  0.92907134  0.45239852     0.00600
H1043       H  0.68422140  0.97312184  0.36877368     0.15100
H1044       H  0.66170353  0.60609011  0.41244535     0.14900
C1045       C  0.64613487  0.57255582  0.46354034     0.02500
C1046       C  0.64740049  0.64164041  0.46719203     0.02500
C1047       C  0.62899076  0.66737192  0.48657461    -0.18000
C1048       C  0.61097491  0.61126476  0.98443436     0.02500
C1049       C  0.61090930  0.54643170  0.98292216     0.02500
C1050       C  0.62928872  0.53898573  0.48162505    -0.18000
H1051       H  0.62823608  0.48947794  0.47974756     0.04500
H1052       H  0.62794261  0.71683826  0.48889738     0.04500
C1053       C  0.65912851  0.81836896  0.39228944     0.02500
C1054       C  0.65128532  0.88382541  0.39338889     0.02500
C1055       C  0.63190990  0.90394429  0.37289059    -0.18000
C1056       C  0.62448753  0.86768667  0.34921724     0.02500
C1057       C  0.63611650  0.81025044  0.34775477     0.02500
C1058       C  0.65265951  0.78546360  0.36822609    -0.18000
H1059       H  0.65776648  0.73693321  0.36673350     0.04500
H1060       H  0.62278652  0.94856563  0.37591130     0.04500
C1061       C  0.26336051  0.90224133  0.35374792     0.02500
C1062       C  0.26970202  0.85180602  0.36968874     0.02500
C1063       C  0.25182116  0.82773642  0.38910224    -0.18000
C1064       C  0.22691495  0.85688741  0.39432431     0.02500
C1065       C  0.22393519  0.92196811  0.38446120     0.02500
C1066       C  0.24317083  0.94233336  0.36448983    -0.18000
H1067       H  0.24166276  0.98873387  0.35655804     0.04500
H1068       H  0.25582061  0.78212652  0.39731020     0.04500
C1069       C  0.20478801  0.97333005  0.39727339     0.86700
C1070       C  0.18826201  0.51996066  0.37975856    -0.53500
C1071       C  0.17167527  0.56077200  0.39488541     0.09600
C1072       C  0.17238380  0.54319337  0.42714026     0.20600
C1073       C  0.21920363  0.51384184  0.41979245    -0.54200
C1074       C  0.20313227  0.55612999  0.43414209     0.09700
C1075       C  0.18326840  0.93916609  0.41190597    -0.53800
C1076       C  0.16845984  0.96956815  0.42997083     0.10300
H1077       H  0.19004667  0.52233747  0.35717872     0.14800
H1078       H  0.15809419  0.56951788  0.44027372     0.00600
H1079       H  0.24122882  0.51254739  0.42251429     0.15100
H1080       H  0.17469123  0.89828180  0.40267296     0.14900
C1081       C  0.21591103  0.60399559  0.45535911     0.02500
C1082       C  0.21598766  0.67341346  0.45645000     0.02500
C1083       C  0.23338578  0.70243578  0.47575541    -0.18000
C1084       C  0.25054060  0.66958506  0.49362531     0.02500
C1085       C  0.24983129  0.60486127  0.49379283     0.02500
C1086       C  0.23253680  0.57368384  0.47524786    -0.18000
H1087       H  0.23295479  0.52385172  0.47573023     0.04500
H1088       H  0.23414822  0.75207273  0.47684632     0.04500
C1089       C  0.16995884  0.72683259  0.39905877     0.86700
C1090       C  0.15228900  0.77330696  0.41642224    -0.53500
C1091       C  0.16670212  0.81121218  0.43484490     0.09600
C1092       C  0.19805559  0.79349470  0.43485564     0.20600
C1093       C  0.19182162  0.77044577  0.38562337    -0.54200
C1094       C  0.20543317  0.80940784  0.40405239     0.09700
C1095       C  0.18369035  0.69074015  0.42032672    -0.53800
C1096       C  0.20016498  0.71856101  0.43774949     0.10300
H1097       H  0.13035176  0.77696228  0.41375960     0.14800
H1098       H  0.21023275  0.82015299  0.45030008     0.00600
H1099       H  0.19518309  0.77213567  0.36323447     0.15100
H1100       H  0.17250759  0.65317360  0.42908230     0.14900
O1101       O  0.46756979  0.52812743  0.14410856    -0.71600
O1102       O  0.41117151  0.54991811  0.19897412    -0.71800
O1103       O  0.46686191  0.53396512  0.20097351    -0.71600
O1104       O  0.41293084  0.54452023  0.14317769    -0.71600
O1105       O  0.40431078  0.94390241  0.14330112    -0.71600
O1106       O  0.45835483  0.92829806  0.20116555    -0.71600
O1107       O  0.40273787  0.94727942  0.19873500    -0.71600
O1108       O  0.45892811  0.92523830  0.14408126    -0.71800
V1109       V  0.43974238  0.53718916  0.17190375     1.35200
V1110       V  0.43134491  0.93800345  0.17201634     1.35200
C1111       C  0.47421744  0.47561281  0.13468883     0.77700
C1112       C  0.39440412  0.00004794  0.20593016     0.77700
C1113       C  0.47070328  0.97511801  0.21085116     0.77600
C1114       C  0.39996892  0.49750982  0.13494237     0.77600
O1115       O  0.46463154  0.77396838  0.13998656    -0.71600
O1116       O  0.42663101  0.79412587  0.20869822    -0.71800
O1117       O  0.47840911  0.77557181  0.19441592    -0.71600
O1118       O  0.41123810  0.79407006  0.15398903    -0.71600
O1119       O  0.40764098  0.69499800  0.15206450    -0.71600
O1120       O  0.46979949  0.67879777  0.20070096    -0.71600
O1121       O  0.41652841  0.69712473  0.20865354    -0.71600
O1122       O  0.46236893  0.67531623  0.14469883    -0.71800
V1123       V  0.44505356  0.78254914  0.17417790     1.35200
V1124       V  0.43906176  0.68818616  0.17628125     1.35200
C1125       C  0.47200157  0.72114129  0.13176373     0.77700
C1126       C  0.41506754  0.74919201  0.22047603     0.77700
C1127       C  0.48423057  0.72545806  0.20637982     0.77600
C1128       C  0.39814151  0.74740612  0.14542123     0.77600
C1129       C  0.75578955  0.64973046  0.36240327     0.02500
C1130       C  0.75007574  0.58846552  0.35977347     0.02500
C1131       C  0.72956342  0.55761783  0.37291309    -0.18000
C1132       C  0.71298213  0.58587858  0.39244776     0.02500
C1133       C  0.71817044  0.65340957  0.39820145     0.02500
C1134       C  0.73795483  0.68315023  0.38070761    -0.18000
H1135       H  0.73904386  0.73246253  0.38165388     0.04500
H1136       H  0.72739178  0.50911720  0.36812093     0.04500
C1137       C  0.74929721  0.91107463  0.50096528     0.02500
C1138       C  0.74608648  0.84796821  0.50633759     0.02500
C1139       C  0.72645157  0.81483063  0.49155286    -0.18000
C1140       C  0.71009223  0.84046654  0.47015056     0.02500
C1141       C  0.71155726  0.90811022  0.46617942     0.02500
C1142       C  0.73107862  0.94008794  0.48274781    -0.18000
H1143       H  0.73327724  0.98943515  0.48069108     0.04500
H1144       H  0.72527834  0.76598143  0.49596490     0.04500
C1145       C  0.37501359  0.75312061  0.12454722     0.01600
C1146       C  0.37896629  0.72936860  0.09771161     0.04400
C1147       C  0.35672200  0.72158082  0.07938951    -0.11700
C1148       C  0.33247658  0.75658768  0.08255966     0.23700
C1149       C  0.33140385  0.79341293  0.10701554    -0.12200
C1150       C  0.34930594  0.78093968  0.12958207     0.05100
C1151       C  0.30867884  0.75065980  0.06180063     0.27500
C1152       C  0.31344031  0.75007353  0.03227448    -0.12900
C1153       C  0.29275892  0.73064223  0.01338610     0.05600
C1154       C  0.26703933  0.71253812  0.02323585    -0.08900
C1155       C  0.26052738  0.72438369  0.05119682     0.06400
C1156       C  0.28107493  0.74098588  0.07073882    -0.13300
Br1157     Br  0.30799203  0.86391096  0.11044640    -0.05300
Br1158     Br  0.41492174  0.71180414  0.08477548     0.00300
Br1159     Br  0.30266482  0.73063597  0.46625799     0.00700
Br1160     Br  0.26945541  0.74493429  0.10932042    -0.03700
Br1161     Br  0.33070204  0.76950774  0.16402127     0.00800
Br1162     Br  0.35949757  0.65423163  0.05433324    -0.03800
Br1163     Br  0.34801439  0.77512642  0.01630877    -0.03800
Br1164     Br  0.22261015  0.72157168  0.06194452     0.00100
C1165       C  0.37526676  0.50400556  0.11673156     0.01600
C1166       C  0.35626855  0.55131404  0.12236447     0.04400
C1167       C  0.33284389  0.55842095  0.10539899    -0.11700
C1168       C  0.32797982  0.51914810  0.08227572     0.23700
C1169       C  0.34524564  0.46817500  0.07884217    -0.12200
C1170       C  0.36934049  0.96087101  0.09220739     0.05100
C1171       C  0.30595314  0.53287713  0.06093911     0.27500
C1172       C  0.27798200  0.53438710  0.06851538    -0.12900
C1173       C  0.25830274  0.55861031  0.04982924     0.05600
C1174       C  0.26610315  0.57778054  0.02299343    -0.08900
C1175       C  0.29248664  0.56445444  0.01355401     0.06400
C1176       C  0.31270234  0.54412760  0.03242432    -0.13300
Br1177     Br  0.33662313  0.90605220  0.04801379    -0.05300
Br1178     Br  0.36028482  0.60308959  0.15522361     0.00300
Br1179     Br  0.22031439  0.56190656  0.06003220     0.00700
Br1180     Br  0.34909210  0.53156073  0.01762304    -0.03700
Br1181     Br  0.39170629  0.88961209  0.08734041     0.00800
Br1182     Br  0.30752473  0.62157702  0.11502787    -0.03000
Br1183     Br  0.26598968  0.49934597  0.10339339    -0.03800
Br1184     Br  0.30549821  0.57032561  0.46544273     0.00100
C1185       C  0.27835497  0.91036916  0.32591008     0.01600
C1186       C  0.26520903  0.94807912  0.30580553     0.04400
C1187       C  0.27994006  0.97667221  0.28495560    -0.11700
C1188       C  0.30722995  0.96168748  0.28105610     0.23700
C1189       C  0.32009842  0.91579860  0.29846579    -0.12200
C1190       C  0.30464834  0.87753716  0.31900138     0.05100
C1191       C  0.32284333  0.99376151  0.25806370     0.27500
C1192       C  0.32068623  0.97488717  0.22984307    -0.12900
C1193       C  0.34332926  0.98169499  0.21189124     0.05600
C1194       C  0.36816176  0.00712778  0.22211124    -0.08900
C1195       C  0.36717303  0.03838925  0.24798445     0.06400
C1196       C  0.34380281  0.03518068  0.26506099    -0.13300
Br1197     Br  0.35987724  0.91895358  0.29423893    -0.05300
Br1198     Br  0.22568402  0.95358326  0.30335948     0.00300
Br1199     Br  0.33954772  0.95762636  0.17330243     0.00700
Br1200     Br  0.34199430  0.07827353  0.30030928    -0.03700
Br1201     Br  0.32512279  0.73112397  0.35292976     0.00800
Br1202     Br  0.26844913  0.54636278  0.26789308    -0.03000
Br1203     Br  0.28646349  0.94403582  0.21509293    -0.03800
Br1204     Br  0.39868486  0.07743180  0.26229774     0.00100
C1205       C  0.29159597  0.81794486  0.35842926     0.01600
C1206       C  0.32208931  0.84532394  0.36295323     0.04400
C1207       C  0.34500663  0.83347751  0.33926698    -0.11700
C1208       C  0.33681692  0.79516706  0.31035893     0.23700
C1209       C  0.30593956  0.77000786  0.30653978    -0.12200
C1210       C  0.28366594  0.78118941  0.33016880     0.05100
C1211       C  0.35733734  0.77787309  0.28794237     0.27500
C1212       C  0.35203013  0.79509930  0.25978608    -0.12900
C1213       C  0.37253946  0.79125803  0.23974663     0.05600
C1214       C  0.39683222  0.75999719  0.24486579    -0.08900
C1215       C  0.40244716  0.74007217  0.27236808     0.06400
C1216       C  0.38266307  0.74790512  0.29374165    -0.13300
Br1217     Br  0.29821320  0.70417422  0.28057404    -0.05300
Br1218     Br  0.33038030  0.89160974  0.39613576     0.00300
Br1219     Br  0.36949031  0.83851840  0.20656552     0.00700
Br1220     Br  0.38955245  0.70881812  0.32916693    -0.03700
Br1221     Br  0.24782234  0.74626453  0.32616686     0.00800
Br1222     Br  0.38210516  0.85484435  0.34978392    -0.03000
Br1223     Br  0.31721850  0.82513580  0.24674796    -0.03800
Br1224     Br  0.43817062  0.70832215  0.28162690     0.00100
C1225       C  0.60240297  0.88384034  0.32686535     0.01600
C1226       C  0.58859344  0.83633583  0.30811611     0.04400
C1227       C  0.57164953  0.86796750  0.28603558    -0.11700
C1228       C  0.56067149  0.92868301  0.28979193     0.23700
C1229       C  0.57300346  0.96622348  0.30988413    -0.12200
C1230       C  0.59679189  0.94698559  0.32321363     0.05100
C1231       C  0.53817131  0.95480594  0.27063798     0.27500
C1232       C  0.54274440  0.96397621  0.24161536    -0.12900
C1233       C  0.52058440  0.96130525  0.22257238     0.05600
C1234       C  0.49365002  0.96942938  0.23181902    -0.08900
C1235       C  0.48939981  0.97502398  0.26087468     0.06400
C1236       C  0.51108587  0.96498653  0.28027619    -0.13300
Br1237     Br  0.55854126  0.54814128  0.32005676    -0.05300
Br1238     Br  0.60254790  0.66914151  0.31449148     0.00300
Br1239     Br  0.52712697  0.93901867  0.18435460     0.00700
Br1240     Br  0.50271649  0.96606532  0.31978220    -0.03700
Br1241     Br  0.62507975  0.00841984  0.32802018     0.00800
Br1242     Br  0.56640795  0.84035032  0.24732907    -0.03000
Br1243     Br  0.57924896  0.97647821  0.22712690    -0.03800
Br1244     Br  0.45338411  0.99063271  0.27427699     0.00100
C1245       C  0.61997402  0.77097341  0.33175156     0.01600
C1246       C  0.62518637  0.76798860  0.29867066     0.04400
C1247       C  0.60001484  0.75231117  0.27797481    -0.11700
C1248       C  0.56889025  0.74160640  0.29106950     0.23700
C1249       C  0.56469464  0.74627391  0.32444038    -0.12200
C1250       C  0.58979518  0.76105095  0.34454628     0.05100
C1251       C  0.54421233  0.72627376  0.27324261     0.27500
C1252       C  0.52032764  0.76357369  0.27440371    -0.12900
C1253       C  0.50191907  0.76496965  0.25175765     0.05600
C1254       C  0.50495732  0.72425122  0.22916409    -0.08900
C1255       C  0.52632889  0.68114491  0.22996788     0.06400
C1256       C  0.54571723  0.68183375  0.25189618    -0.13300
Br1257     Br  0.53406249  0.70646397  0.34208641    -0.05300
Br1258     Br  0.66092957  0.78580649  0.28471913     0.00300
Br1259     Br  0.47294912  0.82532640  0.25154289     0.00700
Br1260     Br  0.57262352  0.61811733  0.25385806    -0.03700
Br1261     Br  0.58402877  0.76682075  0.38425043     0.00800
Br1262     Br  0.61076494  0.73652263  0.23959614    -0.03000
Br1263     Br  0.51268446  0.81841241  0.30490337    -0.03800
Br1264     Br  0.53069723  0.62451598  0.20006109     0.00100
C1265       C  0.49250577  0.71376988  0.10858176     0.01600
C1266       C  0.49096630  0.66478762  0.08906769     0.04400
C1267       C  0.51106350  0.65780620  0.06819197    -0.11700
C1268       C  0.53352603  0.69855256  0.06631062     0.23700
C1269       C  0.53425473  0.74845678  0.08495776    -0.12200
C1270       C  0.51471136  0.75522276  0.10632829     0.05100
C1271       C  0.55562113  0.68932423  0.04451567     0.27500
C1272       C  0.58365112  0.67888219  0.05191310    -0.12900
C1273       C  0.60199934  0.65653749  0.03164979     0.05600
C1274       C  0.59293776  0.64472420  0.00422741    -0.08900
C1275       C  0.56719310  0.66653682  0.99566516     0.06400
C1276       C  0.54862051  0.68891177  0.01563340    -0.13300
Br1277     Br  0.56037009  0.81163458  0.07920021    -0.05300
Br1278     Br  0.46196306  0.60488510  0.09056313     0.00300
Br1279     Br  0.64019419  0.64462667  0.04074062     0.00700
Br1280     Br  0.51378012  0.71995678  0.00284753    -0.03700
Br1281     Br  0.52044691  0.81901107  0.13377622     0.00800
Br1282     Br  0.50668768  0.59259583  0.04166804    -0.03000
Br1283     Br  0.59826937  0.69238626  0.08933176    -0.03800
Br1284     Br  0.56106921  0.69138821  0.47260222     0.00100
C1285       C  0.49517714  0.46874457  0.11134163     0.01600
C1286       C  0.49261800  0.42377150  0.08991688     0.04400
C1287       C  0.51201947  0.41934126  0.06782563    -0.11700
C1288       C  0.53463140  0.46029173  0.06609018     0.23700
C1289       C  0.53714036  0.50392204  0.08800075    -0.12200
C1290       C  0.51769127  0.50904562  0.10958970     0.05100
C1291       C  0.55485928  0.46233211  0.04146318     0.27500
C1292       C  0.58384763  0.46059838  0.04635067    -0.12900
C1293       C  0.60227808  0.48389851  0.02632385     0.05600
C1294       C  0.59255241  0.50862164  0.00108634    -0.08900
C1295       C  0.56521398  0.49818360  0.99350942     0.06400
C1296       C  0.54620740  0.47644608  0.01342781    -0.13300
Br1297     Br  0.56646579  0.56153460  0.08825340    -0.05300
Br1298     Br  0.45977243  0.86677277  0.08699635     0.00300
Br1299     Br  0.64128179  0.48152803  0.03308247     0.00700
Br1300     Br  0.50872001  0.47054891  0.00072630    -0.03700
Br1301     Br  0.52211675  0.57485612  0.13595759     0.00800
Br1302     Br  0.50791882  0.35323422  0.04163095    -0.03000
Br1303     Br  0.59734975  0.93159321  0.08406494    -0.03800
Br1304     Br  0.55466080  0.51038596  0.95491048     0.00100
C1305       C  0.98765868  0.77632389  0.11932674     0.01600
C1306       C  0.01526147  0.78339073  0.12708328     0.04400
C1307       C  0.03606508  0.78051547  0.10683649    -0.11700
C1308       C  0.02956125  0.78087139  0.07770374     0.23700
C1309       C  0.00167940  0.77111982  0.06995828    -0.12200
C1310       C  0.98119565  0.76996362  0.09068821     0.05100
C1311       C  0.05107473  0.80189415  0.05686766     0.27500
C1312       C  0.06683820  0.85507265  0.06299049    -0.12900
C1313       C  0.08908917  0.87094578  0.04605569     0.05600
C1314       C  0.09062352  0.84879696  0.01844497    -0.08900
C1315       C  0.07400457  0.79835630  0.01107933     0.06400
C1316       C  0.05694323  0.77101370  0.03130244    -0.13300
Br1317     Br  0.98961909  0.76036015  0.03145973    -0.05300
Br1318     Br  0.02468435  0.80274838  0.16527071     0.00300
Br1319     Br  0.12046594  0.90864700  0.06330547     0.00700
Br1320     Br  0.04636866  0.68794257  0.02451895    -0.03700
Br1321     Br  0.94374898  0.76978700  0.07912394     0.00800
Br1322     Br  0.07375548  0.77474770  0.11972668    -0.03000
Br1323     Br  0.05756003  0.90988589  0.09331634    -0.03800
Br1324     Br  0.07527025  0.77391828  0.46333594     0.00100
C1325       C  0.87373623  0.78204672  0.24333192     0.01600
C1326       C  0.88363162  0.77636598  0.27110182     0.04400
C1327       C  0.86541489  0.77503886  0.29403499    -0.11700
C1328       C  0.83689309  0.77017593  0.28925705     0.23700
C1329       C  0.82694581  0.78379216  0.26228138    -0.12200
C1330       C  0.84520511  0.79027689  0.23949183     0.05100
C1331       C  0.81841776  0.73683361  0.30966382     0.27500
C1332       C  0.81709609  0.67184666  0.30884819    -0.12900
C1333       C  0.79420777  0.63637317  0.32129783     0.05600
C1334       C  0.77989866  0.67450575  0.34402533    -0.08900
C1335       C  0.79015462  0.73383677  0.35087702     0.06400
C1336       C  0.80564020  0.76707944  0.33173273    -0.13300
Br1337     Br  0.78820368  0.80010407  0.25785346    -0.05300
Br1338     Br  0.92209909  0.76552889  0.27776759     0.00300
Br1339     Br  0.77575791  0.47437443  0.30552065     0.00700
Br1340     Br  0.81221515  0.85263647  0.33876686    -0.03700
Br1341     Br  0.83051771  0.80811367  0.20322269     0.00800
Br1342     Br  0.87948534  0.77190629  0.33183001    -0.03000
Br1343     Br  0.85352108  0.64060485  0.29985296    -0.03800
Br1344     Br  0.78970988  0.76547374  0.38890167     0.00100
C1345       C  0.87115766  0.77049187  0.11899158     0.01600
C1346       C  0.85033187  0.81488532  0.11721228     0.04400
C1347       C  0.83004062  0.81090856  0.09627725    -0.11700
C1348       C  0.82993799  0.76276449  0.07655807     0.23700
C1349       C  0.85114034  0.71945434  0.07779049    -0.12200
C1350       C  0.87161629  0.72343619  0.09858144     0.05100
C1351       C  0.80728459  0.75871999  0.05523264     0.27500
C1352       C  0.77971609  0.75688835  0.06427612    -0.12900
C1353       C  0.75877245  0.77714478  0.04609098     0.05600
C1354       C  0.76473311  0.78764911  0.01782399    -0.08900
C1355       C  0.79007739  0.76871127  0.00749923     0.06400
C1356       C  0.81224865  0.76306250  0.02604603    -0.13300
Br1357     Br  0.85244370  0.65449816  0.05102070    -0.05300
Br1358     Br  0.84861587  0.88034915  0.14389008     0.00300
Br1359     Br  0.72217742  0.78950705  0.05939086     0.00700
Br1360     Br  0.84831118  0.77061235  0.01030794    -0.03700
Br1361     Br  0.90137755  0.66704173  0.09680342     0.00800
Br1362     Br  0.80197310  0.87151859  0.09475840    -0.03000
Br1363     Br  0.77097766  0.73156986  0.10189250    -0.03800
Br1364     Br  0.78469980  0.74702623  0.47900177     0.00100
C1365       C  0.98261007  0.02556655  0.10280036     0.01600
C1366       C  0.00873532  0.57488836  0.10833973     0.04400
C1367       C  0.01823811  0.07562147  0.07586568    -0.11700
C1368       C  0.01974676  0.02587563  0.05742342     0.23700
C1369       C  0.00056889  0.97783636  0.06055171    -0.12200
C1370       C  0.98101836  0.97991023  0.08199609     0.05100
C1371       C  0.04231268  0.02229824  0.03630954     0.27500
C1372       C  0.03639307  0.00688797  0.00812777    -0.12900
C1373       C  0.05648902  0.97704620  0.99224426     0.05600
C1374       C  0.08380525  0.97910708  0.00149261    -0.08900
C1375       C  0.09061749  0.01580922  0.02457954     0.06400
C1376       C  0.07035674  0.02946188  0.04413363    -0.13300
Br1377     Br  0.00132388  0.90767748  0.03659170    -0.05300
Br1378     Br  0.01007203  0.63254295  0.13857860     0.00300
Br1379     Br  0.05783740  0.95270301  0.45583000     0.00700
Br1380     Br  0.08304653  0.04969356  0.08156498    -0.03700
Br1381     Br  0.95096008  0.92314229  0.08156447     0.00800
Br1382     Br  0.05572543  0.64138556  0.08972077    -0.03000
Br1383     Br  0.00158814  0.02746864  0.99135573    -0.03800
Br1384     Br  0.12758550  0.04533582  0.02960682     0.00100
C1385       C  0.86525947  0.03058117  0.10993203     0.01600
C1386       C  0.83855261  0.02358774  0.12026599     0.04400
C1387       C  0.81612076  0.01614990  0.10175134    -0.11700
C1388       C  0.82000976  0.02141706  0.07237947     0.23700
C1389       C  0.84571819  0.04302666  0.06309490    -0.12200
C1390       C  0.86868275  0.04166561  0.08116362     0.05100
C1391       C  0.80029487  0.99314849  0.05140746     0.27500
C1392       C  0.81013242  0.94815669  0.03243325    -0.12900
C1393       C  0.79253170  0.92207411  0.01242971     0.05600
C1394       C  0.76410602  0.92543279  0.01570096    -0.08900
C1395       C  0.75383401  0.97052098  0.03415145     0.06400
C1396       C  0.77205806  0.00829453  0.04969793    -0.13300
Br1397     Br  0.86887771  0.50838758  0.01658335    -0.05300
Br1398     Br  0.83234817  0.02626448  0.15995156     0.00300
Br1399     Br  0.80083878  0.89920358  0.46282635     0.00700
Br1400     Br  0.75833739  0.08509339  0.06379544    -0.03700
Br1401     Br  0.91635490  0.52216544  0.06576942     0.00800
Br1402     Br  0.78036451  0.00327727  0.11800576    -0.03000
Br1403     Br  0.84734179  0.91826385  0.03360223    -0.03800
Br1404     Br  0.71499101  0.98325685  0.03715914     0.00100
C1405       C  0.86970035  0.53988352  0.22317425     0.01600
C1406       C  0.85088477  0.58891178  0.22200926     0.04400
C1407       C  0.82903217  0.59216105  0.24103550    -0.11700
C1408       C  0.82577715  0.54731688  0.26236896     0.23700
C1409       C  0.84368920  0.49648729  0.26154598    -0.12200
C1410       C  0.86644061  0.49522078  0.24386981     0.05100
C1411       C  0.80701324  0.55776480  0.28742929     0.27500
C1412       C  0.81677667  0.53904861  0.31969244    -0.12900
C1413       C  0.79510266  0.54038227  0.34476542     0.05600
C1414       C  0.76405700  0.56034083  0.33827871    -0.08900
C1415       C  0.75442407  0.58102236  0.30737421     0.06400
C1416       C  0.77552744  0.57903765  0.28214347    -0.13300
Br1417     Br  0.83535025  0.42266718  0.28042063    -0.05300
Br1418     Br  0.85557408  0.65495882  0.19562195     0.00300
Br1419     Br  0.80550702  0.51972174  0.38239028     0.00700
Br1420     Br  0.75769358  0.56564850  0.24636328    -0.03700
Br1421     Br  0.89446536  0.93105420  0.25026481     0.00800
Br1422     Br  0.80511341  0.66073903  0.23717200    -0.03000
Br1423     Br  0.85310079  0.51230290  0.33095048    -0.03800
Br1424     Br  0.71803527  0.61209687  0.30144150     0.00100
C1425       C  0.99190311  0.78099110  0.23564056     0.01600
C1426       C  0.01217507  0.73507196  0.23340044     0.04400
C1427       C  0.03547662  0.73590566  0.25068624    -0.11700
C1428       C  0.03881027  0.78145831  0.27160333     0.23700
C1429       C  0.01866826  0.82753789  0.27372155    -0.12200
C1430       C  0.99530347  0.82701603  0.25619204     0.05100
C1431       C  0.06245254  0.77722713  0.29186540     0.27500
C1432       C  0.05855705  0.77171302  0.32136615    -0.12900
C1433       C  0.08047308  0.75282237  0.33824230     0.05600
C1434       C  0.10252842  0.72269777  0.32571334    -0.08900
C1435       C  0.10790151  0.73319143  0.29738676     0.06400
C1436       C  0.08929874  0.76805821  0.28145972    -0.13300
Br1437     Br  0.02312776  0.89255679  0.30017881    -0.05300
Br1438     Br  0.00891810  0.66934230  0.20676626     0.00300
Br1439     Br  0.07989612  0.76612762  0.37828949     0.00700
Br1440     Br  0.09973796  0.79572704  0.24452980    -0.03700
Br1441     Br  0.96681936  0.88609768  0.26249113     0.00800
Br1442     Br  0.06192271  0.67118644  0.24581850    -0.03000
Br1443     Br  0.02364021  0.77739323  0.34007345    -0.03800
Br1444     Br  0.13964922  0.69725440  0.28033004     0.00100
C1445       C  0.09430807  0.58658161  0.32696730     0.01600
C1446       C  0.10089785  0.54167241  0.30676469     0.04400
C1447       C  0.08024917  0.51703072  0.28894458    -0.11700
C1448       C  0.05415385  0.54639336  0.28683837     0.23700
C1449       C  0.04852882  0.59287158  0.30694620    -0.12200
C1450       C  0.06680679  0.60402497  0.32910756     0.05100
C1451       C  0.03240878  0.53015266  0.26493133     0.27500
C1452       C  0.03821422  0.52368340  0.23573503    -0.12900
C1453       C  0.01661538  0.51548531  0.21616799     0.05600
C1454       C  0.98935529  0.52528649  0.22420167    -0.08900
C1455       C  0.98350836  0.53305416  0.25263134     0.06400
C1456       C  0.00434283  0.52712694  0.27290012    -0.13300
Br1457     Br  0.01743895  0.64729588  0.30383374    -0.05300
Br1458     Br  0.13802477  0.51278321  0.30356420     0.00300
Br1459     Br  0.02432788  0.49263683  0.17799783     0.00700
Br1460     Br  0.99316414  0.51178797  0.31132211    -0.03700
Br1461     Br  0.05225721  0.62739237  0.36475548     0.00800
Br1462     Br  0.08367424  0.93018431  0.27702457    -0.03000
Br1463     Br  0.07448068  0.53232430  0.22029147    -0.03800
Br1464     Br  0.94346560  0.05594979  0.26216314     0.00100
C1465       C  0.11402459  0.68722719  0.85443382     0.02500
C1466       C  0.11191010  0.62248723  0.85472786     0.02500
C1467       C  0.12878566  0.58871333  0.87327217    -0.18000
C1468       C  0.14822354  0.61630066  0.89160825     0.02500
C1469       C  0.14844634  0.68531633  0.89202906     0.02500
C1470       C  0.13183543  0.71678575  0.87274131    -0.18000
H1471       H  0.13238338  0.76662895  0.87211890     0.04500
H1472       H  0.12729892  0.53902178  0.87267440     0.04500
O1473       O  0.91214788  0.55072451  0.63773017    -0.71600
O1474       O  0.97054041  0.55336974  0.69051063    -0.71800
O1475       O  0.96559203  0.55760020  0.63479271    -0.71600
O1476       O  0.91624581  0.54665197  0.69449299    -0.71600
O1477       O  0.91020217  0.96434642  0.68787022    -0.71600
O1478       O  0.96921123  0.97361695  0.63591456    -0.71600
O1479       O  0.96562901  0.96690948  0.69228244    -0.71600
O1480       O  0.91445674  0.96903920  0.63219863    -0.71800
V1481       V  0.94108646  0.54997130  0.66449647     1.35200
V1482       V  0.93998691  0.97042897  0.66218279     1.35200
C1483       C  0.90443163  0.01864033  0.62314476     0.77700
C1484       C  0.98134361  0.50418068  0.69913562     0.77700
C1485       C  0.97733226  0.02491913  0.62654379     0.77600
C1486       C  0.90733917  0.49593346  0.70334306     0.77600
O1487       O  0.96552243  0.71284167  0.64285818    -0.71600
O1488       O  0.91111155  0.70360533  0.69955013    -0.71800
O1489       O  0.91019656  0.70382010  0.64330908    -0.71600
O1490       O  0.96581888  0.71312257  0.69928610    -0.71600
O1491       O  0.96313534  0.81230412  0.69905796    -0.71600
O1492       O  0.90716321  0.80307579  0.64384287    -0.71600
O1493       O  0.90784523  0.80281961  0.69957063    -0.71600
O1494       O  0.96238000  0.81233958  0.64296753    -0.71800
V1495       V  0.93815187  0.71026340  0.67117321     1.35200
V1496       V  0.93519041  0.80570886  0.67132455     1.35200
C1497       C  0.97350517  0.76413519  0.63352847     0.77700
C1498       C  0.90009120  0.75164429  0.70918387     0.77700
C1499       C  0.89863786  0.75211427  0.63453303     0.77600
C1500       C  0.97418305  0.76421499  0.70867880     0.77600
C1501       C  0.11571358  0.93660124  0.48502061     0.02500
C1502       C  0.11687450  0.87239199  0.48957829     0.02500
C1503       C  0.12989929  0.84407738  0.98471174    -0.18000
C1504       C  0.14702429  0.86824633  0.96378715     0.02500
C1505       C  0.14474041  0.93541098  0.95804895     0.02500
C1506       C  0.12306335  0.96755437  0.97011258    -0.18000
H1507       H  0.11973373  0.01533485  0.96490782     0.04500
H1508       H  0.13190070  0.79603413  0.99033114     0.04500
C1509       C  0.66998849  0.66774445  0.93838418     0.86700
C1510       C  0.68147827  0.72174895  0.95642482    -0.53500
C1511       C  0.69861092  0.76294870  0.94240513     0.09600
C1512       C  0.70318995  0.74198908  0.91088389     0.20600
C1513       C  0.65699762  0.70487526  0.91351270    -0.54200
C1514       C  0.67352546  0.74871331  0.90100840     0.09700
C1515       C  0.69655050  0.63912614  0.92953587    -0.53800
C1516       C  0.71045639  0.66812060  0.90962705     0.10300
H1517       H  0.67679582  0.72681729  0.97846854     0.14800
H1518       H  0.71757744  0.77182142  0.89933178     0.00600
H1519       H  0.63549079  0.70065626  0.90825258     0.15100
H1520       H  0.70365208  0.59607958  0.93829307     0.14900
C1521       C  0.70182621  0.50711932  0.89783045     0.86700
C1522       C  0.71499597  0.97055939  0.92226957    -0.53500
C1523       C  0.69995622  0.92700910  0.93658616     0.09600
C1524       C  0.66948919  0.93362329  0.92939518     0.20600
C1525       C  0.68597431  0.95260455  0.88191439    -0.54200
C1526       C  0.67041922  0.91222232  0.89797336     0.09700
C1527       C  0.67573007  0.53618440  0.90651460    -0.53800
C1528       C  0.66267841  0.50728009  0.92679380     0.10300
H1529       H  0.73690769  0.97515344  0.92532275     0.14800
H1530       H  0.65638543  0.90415179  0.94256638     0.00600
H1531       H  0.68783382  0.94697513  0.85944959     0.15100
H1532       H  0.66855894  0.57923062  0.89777197     0.14900
C1533       C  0.64743394  0.54908467  0.94773325     0.02500
C1534       C  0.64948460  0.61789114  0.95149226     0.02500
C1535       C  0.62972562  0.64524912  0.96881849    -0.18000
C1536       C  0.61160198  0.63188805  0.50321114     0.02500
C1537       C  0.61224185  0.56708297  0.50114835     0.02500
C1538       C  0.62858003  0.51692648  0.96436629    -0.18000
H1539       H  0.62714836  0.46744870  0.96277583     0.04500
H1540       H  0.62927535  0.69480672  0.97102633     0.04500
C1541       C  0.66239931  0.79541913  0.87989705     0.02500
C1542       C  0.65395542  0.85973788  0.88441301     0.02500
C1543       C  0.63124126  0.88179533  0.86851644    -0.18000
C1544       C  0.61972242  0.84870895  0.84562710     0.02500
C1545       C  0.62997365  0.79067630  0.84137743     0.02500
C1546       C  0.65079581  0.76458540  0.85706913    -0.18000
H1547       H  0.65514031  0.71614798  0.85379352     0.04500
H1548       H  0.62250040  0.92503302  0.87487956     0.04500
C1549       C  0.25490705  0.89676597  0.86093425     0.02500
C1550       C  0.26186284  0.84835624  0.87799194     0.02500
C1551       C  0.24562224  0.82877310  0.89969217    -0.18000
C1552       C  0.22139110  0.85963180  0.90552328     0.02500
C1553       C  0.21828417  0.92336356  0.89426728     0.02500
C1554       C  0.23572855  0.93943815  0.87180366    -0.18000
H1555       H  0.23368744  0.98424943  0.86229211     0.04500
H1556       H  0.24974898  0.78413674  0.90891760     0.04500
C1557       C  0.20018365  0.97641827  0.90743846     0.86700
C1558       C  0.18421559  0.52743740  0.89013076    -0.53500
C1559       C  0.16759444  0.56713889  0.90586499     0.09600
C1560       C  0.16922255  0.54847050  0.93797862     0.20600
C1561       C  0.21610809  0.52080467  0.92960962    -0.54200
C1562       C  0.20007276  0.56225323  0.94470030     0.09700
C1563       C  0.17856939  0.94347462  0.92250356    -0.53800
C1564       C  0.16380917  0.97471077  0.94028601     0.10300
H1565       H  0.18539772  0.53038847  0.86752403     0.14800
H1566       H  0.15496938  0.57332632  0.95165120     0.00600
H1567       H  0.23817707  0.51993193  0.93191635     0.15100
H1568       H  0.16964545  0.90267377  0.91348794     0.14900
C1569       C  0.21283972  0.61038039  0.96623465     0.02500
C1570       C  0.21202499  0.67974088  0.96793399     0.02500
C1571       C  0.22951090  0.70968899  0.98721469    -0.18000
C1572       C  0.24745988  0.67775952  0.00478791     0.02500
C1573       C  0.24702707  0.61298717  0.00472674     0.02500
C1574       C  0.23002996  0.58097785  0.98594899    -0.18000
H1575       H  0.23108733  0.53119922  0.98615014     0.04500
H1576       H  0.22987968  0.75931624  0.98828353     0.04500
C1577       C  0.16392422  0.73161434  0.91158336     0.86700
C1578       C  0.14672375  0.77840486  0.92900152    -0.53500
C1579       C  0.16157706  0.81659983  0.94684906     0.09600
C1580       C  0.19289081  0.79860386  0.94658716     0.20600
C1581       C  0.18557240  0.77467382  0.89760368    -0.54200
C1582       C  0.19976588  0.81338764  0.91567435     0.09700
C1583       C  0.17807725  0.69564089  0.93285592    -0.53800
C1584       C  0.19511862  0.72393777  0.94973211     0.10300
H1585       H  0.12474751  0.78258920  0.92650102     0.14800
H1586       H  0.20535596  0.82568516  0.96163320     0.00600
H1587       H  0.18836938  0.77619727  0.87514915     0.15100
H1588       H  0.16715474  0.65881946  0.94203622     0.14900
O1589       O  0.45911986  0.53115460  0.65008296    -0.71600
O1590       O  0.40053716  0.54647793  0.70264892    -0.71800
O1591       O  0.45667912  0.53217240  0.70676629    -0.71600
O1592       O  0.40466104  0.54505419  0.64684631    -0.71600
O1593       O  0.39813439  0.94321824  0.64772248    -0.71600
O1594       O  0.45050326  0.92954527  0.70714024    -0.71600
O1595       O  0.39429519  0.94443106  0.70312187    -0.71600
O1596       O  0.45338961  0.92903289  0.65022658    -0.71800
V1597       V  0.43027473  0.53677291  0.67675738     1.35200
V1598       V  0.42429497  0.93842845  0.67724583     1.35200
C1599       C  0.46686022  0.47971657  0.64044363     0.77700
C1600       C  0.38502221  0.99663814  0.71042774     0.77700
C1601       C  0.46193531  0.97677550  0.71750140     0.77600
C1602       C  0.39297804  0.49786064  0.63691808     0.77600
O1603       O  0.45322280  0.77949262  0.64868035    -0.71600
O1604       O  0.40729386  0.79298413  0.71200468    -0.71800
O1605       O  0.46012466  0.77990554  0.70462249    -0.71600
O1606       O  0.39858542  0.79413031  0.65555499    -0.71600
O1607       O  0.39700829  0.69486190  0.65245461    -0.71600
O1608       O  0.45250845  0.68204918  0.70832358    -0.71600
O1609       O  0.39917340  0.69499556  0.70992757    -0.71600
O1610       O  0.45174784  0.68029456  0.65196240    -0.71800
V1611       V  0.42960691  0.78482715  0.68002673     1.35200
V1612       V  0.42502240  0.68980056  0.68045859     1.35200
C1613       C  0.46186465  0.72752388  0.64069483     0.77700
C1614       C  0.39633152  0.74583833  0.72244118     0.77700
C1615       C  0.46542777  0.72927106  0.71633364     0.77600
C1616       C  0.38788438  0.74667387  0.64473296     0.77600
C1617       C  0.76768054  0.61477019  0.85734724     0.02500
C1618       C  0.76485922  0.55244349  0.85975175     0.02500
C1619       C  0.74305367  0.52368031  0.87161291    -0.18000
C1620       C  0.72268694  0.55574883  0.88543438     0.02500
C1621       C  0.72642654  0.62457112  0.88870266     0.02500
C1622       C  0.74782445  0.65146762  0.87209831    -0.18000
H1623       H  0.74876157  0.70090258  0.87099147     0.04500
H1624       H  0.74218406  0.47396819  0.86973689     0.04500
C1625       C  0.74563481  0.88628598  0.99771929     0.02500
C1626       C  0.74572375  0.82145520  0.99905480     0.02500
C1627       C  0.72963856  0.78743291  0.98044966    -0.18000
C1628       C  0.71358339  0.81406202  0.95899789     0.02500
C1629       C  0.71327893  0.88227920  0.95750685     0.02500
C1630       C  0.72928313  0.91482925  0.97745353    -0.18000
H1631       H  0.72981840  0.96464094  0.97675775     0.04500
H1632       H  0.73067208  0.73774374  0.98223831     0.04500
C1633       C  0.36704131  0.75108180  0.62173998     0.01600
C1634       C  0.37341588  0.72892700  0.59510442     0.04400
C1635       C  0.35272448  0.71965699  0.57515605    -0.11700
C1636       C  0.32765462  0.75233826  0.57711076     0.23700
C1637       C  0.32400535  0.78756958  0.60171933    -0.12200
C1638       C  0.34093110  0.77704436  0.62509029     0.05100
C1639       C  0.30553595  0.74585540  0.55488907     0.27500
C1640       C  0.31245867  0.74744751  0.52588406    -0.12900
C1641       C  0.29374628  0.72644411  0.50549541     0.05600
C1642       C  0.26813829  0.70409703  0.51353067    -0.08900
C1643       C  0.25916929  0.71355866  0.54086862     0.06400
C1644       C  0.27759592  0.73290338  0.56183718    -0.13300
Br1645     Br  0.29916477  0.85582447  0.60391047    -0.05300
Br1646     Br  0.41045677  0.72462432  0.58330117     0.00300
Br1647     Br  0.29896422  0.73178212  0.97356271     0.00700
Br1648     Br  0.26260501  0.73546103  0.59931431    -0.03700
Br1649     Br  0.32370142  0.78039494  0.66035368     0.00800
Br1650     Br  0.35909213  0.65475678  0.54897786    -0.03800
Br1651     Br  0.34743270  0.77692693  0.51254804    -0.03800
Br1652     Br  0.22079905  0.70213051  0.54882597     0.00100
C1653       C  0.37085788  0.50339357  0.61544354     0.01600
C1654       C  0.35138737  0.55088806  0.61758571     0.04400
C1655       C  0.33055213  0.55665405  0.59734704    -0.11700
C1656       C  0.32841862  0.51548320  0.57454015     0.23700
C1657       C  0.34654563  0.46541528  0.57378958    -0.12200
C1658       C  0.36535226  0.95656114  0.59529635     0.05100
C1659       C  0.30739688  0.52540056  0.55169630     0.27500
C1660       C  0.27906851  0.52424317  0.55780758    -0.12900
C1661       C  0.25981519  0.54598834  0.53809391     0.05600
C1662       C  0.26861060  0.56895194  0.51222839    -0.08900
C1663       C  0.29577535  0.55918608  0.50412989     0.06400
C1664       C  0.31532568  0.53836391  0.52371527    -0.13300
Br1665     Br  0.33718802  0.90046259  0.54841522    -0.05300
Br1666     Br  0.35091513  0.60491224  0.64981291     0.00300
Br1667     Br  0.22129138  0.54137053  0.54584606     0.00700
Br1668     Br  0.35253962  0.52852967  0.51099989    -0.03700
Br1669     Br  0.38942334  0.88739984  0.59212423     0.00800
Br1670     Br  0.30455663  0.62051887  0.60213985    -0.03000
Br1671     Br  0.26610293  0.49326447  0.59307827    -0.03800
Br1672     Br  0.30010987  0.56957008  0.97408080     0.00100
C1673       C  0.26867038  0.90035604  0.83214396     0.01600
C1674       C  0.25523297  0.93569376  0.81147692     0.04400
C1675       C  0.26974981  0.96246561  0.78981376    -0.11700
C1676       C  0.29713937  0.94724758  0.78577420     0.23700
C1677       C  0.30972964  0.90130524  0.80353403    -0.12200
C1678       C  0.29419854  0.86528941  0.82500625     0.05100
C1679       C  0.31346781  0.98065492  0.76324684     0.27500
C1680       C  0.31124452  0.96646925  0.73429079    -0.12900
C1681       C  0.33352466  0.97850666  0.71612585     0.05600
C1682       C  0.35851713  0.00195654  0.72685981    -0.08900
C1683       C  0.35759465  0.02860280  0.75379041     0.06400
C1684       C  0.33466525  0.02085425  0.77133289    -0.13300
Br1685     Br  0.34935934  0.90054027  0.79797963    -0.05300
Br1686     Br  0.21568497  0.94027831  0.81013868     0.00300
Br1687     Br  0.32977961  0.96167575  0.67666704     0.00700
Br1688     Br  0.33401724  0.05610436  0.80846989    -0.03700
Br1689     Br  0.31335596  0.71965986  0.86067248     0.00800
Br1690     Br  0.25670192  0.53399889  0.76950630    -0.03000
Br1691     Br  0.27790742  0.93297579  0.71876978    -0.03800
Br1692     Br  0.38834430  0.07077785  0.76797179     0.00100
C1693       C  0.28215961  0.81084181  0.86627737     0.01600
C1694       C  0.31329509  0.83493141  0.86856663     0.04400
C1695       C  0.33449639  0.81829617  0.84395047    -0.11700
C1696       C  0.32372326  0.77874681  0.81632643     0.23700
C1697       C  0.29233783  0.75656254  0.81479593    -0.12200
C1698       C  0.27180577  0.77247166  0.83933626     0.05100
C1699       C  0.34183568  0.76057932  0.79244972     0.27500
C1700       C  0.33447075  0.77989689  0.76509527    -0.12900
C1701       C  0.35411535  0.78163625  0.74431817     0.05600
C1702       C  0.37886489  0.75140063  0.74737831    -0.08900
C1703       C  0.38616940  0.72771137  0.77378570     0.06400
C1704       C  0.36757025  0.73144745  0.79628362    -0.13300
Br1705     Br  0.28227749  0.68823115  0.79108267    -0.05300
Br1706     Br  0.32421940  0.88416386  0.90000951     0.00300
Br1707     Br  0.35018376  0.83894176  0.71487669     0.00700
Br1708     Br  0.37648707  0.68897505  0.83045305    -0.03700
Br1709     Br  0.23477142  0.74364089  0.83733334     0.00800
Br1710     Br  0.37258618  0.83428193  0.85244558    -0.03000
Br1711     Br  0.29846343  0.80779802  0.75438891    -0.03800
Br1712     Br  0.42295385  0.69934995  0.78036368     0.00100
C1713       C  0.59464959  0.86826759  0.82743457     0.01600
C1714       C  0.57756372  0.82303784  0.81029466     0.04400
C1715       C  0.55903644  0.85689612  0.79049557    -0.11700
C1716       C  0.54992671  0.91840458  0.79594408     0.23700
C1717       C  0.56423678  0.95310778  0.81569568    -0.12200
C1718       C  0.58905294  0.93197962  0.82604811     0.05100
C1719       C  0.52826214  0.94931390  0.77762577     0.27500
C1720       C  0.53375725  0.96092092  0.74904799    -0.12900
C1721       C  0.51202957  0.96506237  0.72955910     0.05600
C1722       C  0.48480755  0.97131245  0.73857352    -0.08900
C1723       C  0.48003319  0.97346629  0.76762580     0.06400
C1724       C  0.50133818  0.96133784  0.78713131    -0.13300
Br1725     Br  0.55574493  0.52485957  0.82888581    -0.05300
Br1726     Br  0.58679326  0.65443489  0.81603264     0.00300
Br1727     Br  0.51978521  0.95582884  0.69057089     0.00700
Br1728     Br  0.49279259  0.96390747  0.82656655    -0.03700
Br1729     Br  0.61729150  0.99378512  0.83076747     0.00800
Br1730     Br  0.54844815  0.83025432  0.75255902    -0.03000
Br1731     Br  0.57129670  0.96602879  0.73614763    -0.03800
Br1732     Br  0.44378284  0.98743887  0.78087825     0.00100
C1733       C  0.61008051  0.75325336  0.82893348     0.01600
C1734       C  0.60967304  0.74837650  0.79532344     0.04400
C1735       C  0.58110781  0.73631252  0.77931819    -0.11700
C1736       C  0.55228621  0.73178394  0.79724786     0.23700
C1737       C  0.55335464  0.73799607  0.83082908    -0.12200
C1738       C  0.58180365  0.74870985  0.84669327     0.05100
C1739       C  0.52519181  0.71939902  0.78291188     0.27500
C1740       C  0.50309682  0.76162116  0.78462818    -0.12900
C1741       C  0.48406681  0.76644662  0.76240104     0.05600
C1742       C  0.48538323  0.72544747  0.73966787    -0.08900
C1743       C  0.50443028  0.67752939  0.74061811     0.06400
C1744       C  0.52334297  0.67319110  0.76260250    -0.13300
Br1745     Br  0.52409618  0.70517407  0.85304698    -0.05300
Br1746     Br  0.64296862  0.75752625  0.77497842     0.00300
Br1747     Br  0.45660560  0.83004583  0.76289393     0.00700
Br1748     Br  0.54492734  0.60099925  0.76609390    -0.03700
Br1749     Br  0.58221091  0.75621175  0.88676194     0.00800
Br1750     Br  0.58449766  0.71168587  0.74042270    -0.03000
Br1751     Br  0.49885848  0.81562015  0.81583199    -0.03800
Br1752     Br  0.50734436  0.62223997  0.71010315     0.00100
C1753       C  0.48440091  0.72287908  0.61987411     0.01600
C1754       C  0.48416848  0.67838129  0.59835380     0.04400
C1755       C  0.50634914  0.67385516  0.57976647    -0.11700
C1756       C  0.52880992  0.71505172  0.58113968     0.23700
C1757       C  0.52847170  0.76016262  0.60257314    -0.12200
C1758       C  0.50738544  0.76164187  0.62253118     0.05100
C1759       C  0.55241422  0.70820034  0.56074863     0.27500
C1760       C  0.57962625  0.69464286  0.57007872    -0.12900
C1761       C  0.59913948  0.67185179  0.55098843     0.05600
C1762       C  0.59240352  0.66396118  0.52257930    -0.08900
C1763       C  0.56746027  0.68724150  0.51249708     0.06400
C1764       C  0.54736792  0.70812273  0.53126044    -0.13300
Br1765     Br  0.55513275  0.82428571  0.60420046    -0.05300
Br1766     Br  0.45532253  0.61771171  0.59585052     0.00300
Br1767     Br  0.63580141  0.65280173  0.56335854     0.00700
Br1768     Br  0.51252024  0.73242753  0.51536273    -0.03700
Br1769     Br  0.51178817  0.81239178  0.65548370     0.00800
Br1770     Br  0.50587992  0.60771331  0.55343896    -0.03000
Br1771     Br  0.59147988  0.70298422  0.60878765    -0.03800
Br1772     Br  0.55814682  0.66955929  0.95636029     0.00100
C1773       C  0.48968299  0.47577638  0.61896659     0.01600
C1774       C  0.49089199  0.42882754  0.59821752     0.04400
C1775       C  0.51191311  0.42823318  0.57773893    -0.11700
C1776       C  0.53300773  0.47249788  0.57802196     0.23700
C1777       C  0.53284613  0.51563282  0.60006662    -0.12200
C1778       C  0.51093101  0.51991499  0.61890946     0.05100
C1779       C  0.55428954  0.47779622  0.55493753     0.27500
C1780       C  0.58284273  0.47463919  0.56122271    -0.12900
C1781       C  0.60218241  0.49933295  0.54257993     0.05600
C1782       C  0.59340496  0.52776530  0.51779092    -0.08900
C1783       C  0.56655347  0.51762077  0.50850371     0.06400
C1784       C  0.54675919  0.49406936  0.52694013    -0.13300
Br1785     Br  0.56269150  0.57075971  0.60501351    -0.05300
Br1786     Br  0.46082100  0.86768249  0.59458329     0.00300
Br1787     Br  0.64087042  0.49076406  0.54982211     0.00700
Br1788     Br  0.50988778  0.48692588  0.51242601    -0.03700
Br1789     Br  0.51093968  0.58917683  0.64384943     0.00800
Br1790     Br  0.51295781  0.36361995  0.55049488    -0.03000
Br1791     Br  0.59716079  0.93759897  0.59092862    -0.03800
Br1792     Br  0.55805642  0.53050737  0.46945927     0.00100
C1793       C  0.99522163  0.76768920  0.61190667     0.01600
C1794       C  0.02282622  0.77428169  0.61967346     0.04400
C1795       C  0.04339895  0.77500537  0.59917886    -0.11700
C1796       C  0.03647878  0.78067579  0.57015331     0.23700
C1797       C  0.00831260  0.77315253  0.56255200    -0.12200
C1798       C  0.98839725  0.76327122  0.58337844     0.05100
C1799       C  0.05848615  0.79856455  0.54919368     0.27500
C1800       C  0.07718723  0.84624728  0.55619499    -0.12900
C1801       C  0.09929763  0.85939019  0.53867892     0.05600
C1802       C  0.09843955  0.84195593  0.51039269    -0.08900
C1803       C  0.07905676  0.79735925  0.50219809     0.06400
C1804       C  0.06174733  0.77046527  0.52234499    -0.13300
Br1805     Br  0.99480355  0.77884054  0.52447647    -0.05300
Br1806     Br  0.03267127  0.78336945  0.65854554     0.00300
Br1807     Br  0.13241397  0.89147892  0.55487680     0.00700
Br1808     Br  0.04632654  0.69209022  0.51256051    -0.03700
Br1809     Br  0.95117462  0.74437202  0.57297658     0.00800
Br1810     Br  0.08092957  0.76098334  0.61155982    -0.03000
Br1811     Br  0.07162849  0.90034695  0.58770693    -0.03800
Br1812     Br  0.07469930  0.76543952  0.97349824     0.00100
C1813       C  0.88021331  0.74807340  0.73268416     0.01600
C1814       C  0.89018556  0.74630464  0.76038290     0.04400
C1815       C  0.87199904  0.74312471  0.78306009    -0.11700
C1816       C  0.84407651  0.72947701  0.77815556     0.23700
C1817       C  0.83362327  0.73813884  0.75088055    -0.12200
C1818       C  0.85159642  0.74801711  0.72815159     0.05100
C1819       C  0.82697728  0.69649768  0.79991253     0.27500
C1820       C  0.82907065  0.63181186  0.80360222    -0.12900
C1821       C  0.80773290  0.59501870  0.81842580     0.05600
C1822       C  0.79128597  0.63696129  0.83789166    -0.08900
C1823       C  0.79912062  0.69898742  0.84106981     0.06400
C1824       C  0.81246285  0.72964025  0.81968560    -0.13300
Br1825     Br  0.79444024  0.74100197  0.74560282    -0.05300
Br1826     Br  0.92893080  0.74204368  0.76723928     0.00300
Br1827     Br  0.80016299  0.42511841  0.81831513     0.00700
Br1828     Br  0.81372419  0.81737125  0.82022405    -0.03700
Br1829     Br  0.83704425  0.75875465  0.69093474     0.00800
Br1830     Br  0.88579212  0.75306435  0.82070162    -0.03000
Br1831     Br  0.86717548  0.60867759  0.79694928    -0.03800
Br1832     Br  0.80127880  0.73566401  0.87788748     0.00100
C1833       C  0.87493660  0.75040893  0.61481560     0.01600
C1834       C  0.87153358  0.79686510  0.59470047     0.04400
C1835       C  0.84819592  0.79699566  0.57749896    -0.11700
C1836       C  0.82561427  0.75890076  0.58343085     0.23700
C1837       C  0.82843419  0.71484285  0.60468942    -0.12200
C1838       C  0.85407386  0.70602694  0.61731314     0.05100
C1839       C  0.80050388  0.76370952  0.56568279     0.27500
C1840       C  0.77726854  0.79569884  0.57531194    -0.12900
C1841       C  0.75874723  0.82103810  0.55582570     0.05600
C1842       C  0.76332590  0.81428543  0.52692641    -0.08900
C1843       C  0.78310252  0.77181068  0.51779466     0.06400
C1844       C  0.80185258  0.74709106  0.53711065    -0.13300
Br1845     Br  0.79796659  0.66743324  0.61816611    -0.05300
Br1846     Br  0.89945096  0.85780491  0.58862269     0.00300
Br1847     Br  0.72625074  0.86184309  0.56865966     0.00700
Br1848     Br  0.83119236  0.69594411  0.52379656    -0.03700
Br1849     Br  0.86093852  0.62760827  0.63277228     0.00800
Br1850     Br  0.84857204  0.84634569  0.54464176    -0.03000
Br1851     Br  0.77085240  0.80747310  0.61479906    -0.03800
Br1852     Br  0.79395740  0.74865967  0.96832813     0.00100
C1853       C  0.99723859  0.02841217  0.60283117     0.01600
C1854       C  0.01404780  0.56404252  0.60034580     0.04400
C1855       C  0.03456716  0.07968585  0.57791256    -0.11700
C1856       C  0.03578153  0.03216054  0.55814476     0.23700
C1857       C  0.01582395  0.98528749  0.55959984    -0.12200
C1858       C  0.99610924  0.98482968  0.58095067     0.05100
C1859       C  0.05815512  0.02938113  0.53660773     0.27500
C1860       C  0.05140773  0.01939536  0.50807401    -0.12900
C1861       C  0.06967474  0.98629309  0.49115649     0.05600
C1862       C  0.09668548  0.97760946  0.50039253    -0.08900
C1863       C  0.10566512  0.01044108  0.52404825     0.06400
C1864       C  0.08643742  0.02850137  0.54411827    -0.13300
Br1865     Br  0.01554438  0.91967083  0.53295278    -0.05300
Br1866     Br  0.01848664  0.61756316  0.63221568     0.00300
Br1867     Br  0.04645421  0.93206404  0.95901523     0.00700
Br1868     Br  0.10030594  0.04309331  0.58160226    -0.03700
Br1869     Br  0.96647450  0.92655583  0.57862410     0.00800
Br1870     Br  0.05445023  0.64135774  0.57643219    -0.03000
Br1871     Br  0.01702047  0.04744537  0.49273965    -0.03800
Br1872     Br  0.14360709  0.03332956  0.52806195     0.00100
C1873       C  0.88320547  0.01699336  0.60086097     0.01600
C1874       C  0.85878371  0.98510904  0.60562118     0.04400
C1875       C  0.83927899  0.97870453  0.58410314    -0.11700
C1876       C  0.84317608  0.00621669  0.55744512     0.23700
C1877       C  0.86771954  0.03969461  0.55301526    -0.12200
C1878       C  0.88774111  0.04372902  0.57453140     0.05100
C1879       C  0.82034695  0.00090887  0.53601045     0.27500
C1880       C  0.82266786  0.96502659  0.51122340    -0.12900
C1881       C  0.79893155  0.93964893  0.49872077     0.05600
C1882       C  0.77330079  0.94677612  0.51151293    -0.08900
C1883       C  0.77046235  0.99185159  0.53238308     0.06400
C1884       C  0.79384730  0.02043034  0.54378821    -0.13300
Br1885     Br  0.87983549  0.57384767  0.52093321    -0.05300
Br1886     Br  0.85163752  0.95094912  0.64219784     0.00300
Br1887     Br  0.80743444  0.89829015  0.97702215     0.00700
Br1888     Br  0.78945768  0.08021202  0.57302797    -0.03700
Br1889     Br  0.92361932  0.57813478  0.57417608     0.00800
Br1890     Br  0.80704399  0.93134742  0.59211765    -0.03000
Br1891     Br  0.85743137  0.94737809  0.49408960    -0.03800
Br1892     Br  0.73475388  0.01366439  0.54595744     0.00100
C1893       C  0.88581063  0.49511116  0.72553288     0.01600
C1894       C  0.86449722  0.53828697  0.72470644     0.04400
C1895       C  0.84343466  0.53747199  0.74439867    -0.11700
C1896       C  0.84477050  0.49778502  0.76801482     0.23700
C1897       C  0.86601917  0.45386712  0.76873964    -0.12200
C1898       C  0.88630170  0.45327785  0.74793286     0.05100
C1899       C  0.82589632  0.50827670  0.79260161     0.27500
C1900       C  0.83603469  0.50740526  0.82596903    -0.12900
C1901       C  0.81358165  0.51300371  0.85039221     0.05600
C1902       C  0.78171087  0.51941492  0.84190674    -0.08900
C1903       C  0.77205719  0.52215681  0.80973412     0.06400
C1904       C  0.79371487  0.51561912  0.78550276    -0.13300
Br1905     Br  0.86673244  0.38918189  0.79597483    -0.05300
Br1906     Br  0.86492498  0.60428823  0.69851096     0.00300
Br1907     Br  0.82405557  0.51474838  0.88910645     0.00700
Br1908     Br  0.77882212  0.47883145  0.75159659    -0.03700
Br1909     Br  0.89102407  0.89959585  0.73998894     0.00800
Br1910     Br  0.81468335  0.59674347  0.73865308    -0.03000
Br1911     Br  0.87324097  0.49873218  0.83976441    -0.03800
Br1912     Br  0.73415103  0.53428556  0.80027858     0.00100
C1913       C  0.99650235  0.76748869  0.73020574     0.01600
C1914       C  0.01794427  0.72400389  0.73020606     0.04400
C1915       C  0.03915332  0.72733828  0.75020582    -0.11700
C1916       C  0.03863725  0.77173259  0.77192423     0.23700
C1917       C  0.01763164  0.81597648  0.77140435    -0.12200
C1918       C  0.99675278  0.81404284  0.75091070     0.05100
C1919       C  0.05941514  0.76913828  0.79540221     0.27500
C1920       C  0.05181261  0.76228727  0.82404486    -0.12900
C1921       C  0.07201587  0.74856077  0.84412831     0.05600
C1922       C  0.09731745  0.72589477  0.83526790    -0.08900
C1923       C  0.10593302  0.73897092  0.80796300     0.06400
C1924       C  0.08766846  0.76707754  0.78903497    -0.13300
Br1925     Br  0.01747220  0.88075387  0.79832971    -0.05300
Br1926     Br  0.01889801  0.65823661  0.70316017     0.00300
Br1927     Br  0.06537520  0.76097848  0.88356569     0.00700
Br1928     Br  0.10122839  0.80062267  0.75427738    -0.03700
Br1929     Br  0.96735078  0.87272382  0.75336517     0.00800
Br1930     Br  0.06836865  0.66845511  0.74764716    -0.03000
Br1931     Br  0.01439964  0.76218777  0.83711610    -0.03800
Br1932     Br  0.14223897  0.71734359  0.79639133     0.00100
C1933       C  0.09403488  0.58955587  0.83371499     0.01600
C1934       C  0.10531619  0.55025631  0.81338201     0.04400
C1935       C  0.08816743  0.52037054  0.79357313    -0.11700
C1936       C  0.06100478  0.54258634  0.78865952     0.23700
C1937       C  0.05103810  0.58686511  0.80791464    -0.12200
C1938       C  0.06575025  0.60030659  0.83245552     0.05100
C1939       C  0.04211176  0.52165153  0.76493513     0.27500
C1940       C  0.05037802  0.51579737  0.73637678    -0.12900
C1941       C  0.03067606  0.50272527  0.71520008     0.05600
C1942       C  0.00262078  0.50643280  0.72125751    -0.08900
C1943       C  0.99447522  0.51494501  0.74895742     0.06400
C1944       C  0.01381672  0.51252528  0.77066065    -0.13300
Br1945     Br  0.01832796  0.63419425  0.80053727    -0.05300
Br1946     Br  0.14435016  0.53830810  0.81192884     0.00300
Br1947     Br  0.04181593  0.48380198  0.67750416     0.00700
Br1948     Br  0.00070820  0.49178329  0.80782555    -0.03700
Br1949     Br  0.04565632  0.61782886  0.86583151     0.00800
Br1950     Br  0.08233378  0.92013779  0.79673429    -0.03000
Br1951     Br  0.08736460  0.53047032  0.72429904    -0.03800
Br1952     Br  0.94584782  0.03569085  0.76109608     0.00100
loop_ 
_geom_bond_atom_site_label_1 
_geom_bond_atom_site_label_2 
_geom_bond_distance 
_geom_bond_site_symmetry_2 
_ccdc_geom_bond_type 
C1            C2   1.419       .  A
C1            C6   1.389       .  A
C1          C458   1.484       .  S
C2            C3   1.416       .  A
C2          C469   1.520       .  S
C3            C4   1.425       .  A
C3            H8   1.084       .  S
C4            C5   1.505       .  A
C4           C95   1.580       .  S
C5            C6   1.400       .  A
C5          C113   1.574       .  S
C6            H7   1.086       .  S
O9           V17   1.912       .  S
O9          C995   1.267       .  A
O10          V17   1.912       .  S
O10          C20   1.268       .  A
O11          V17   1.889       .  S
O11         C997   1.261       .  A
O12          V17   1.881       .  S
O12          C22   1.258       .  A
O13          V18   1.918       .  S
O13         C998   1.272       .  A
O14          V18   1.907       .  S
O14          C21   1.268       .  A
O15          V18   1.906       .  S
O15         C996   1.265       .  A
O16          V18   1.913       .  S
O16          C19   1.264       .  A
V17         V994   2.082   1_545  T
V18         V993   2.072       .  T
C19         C409   1.500       .  S
C19         O985   1.268       .  A
C20         C478   1.487       .  S
C20         O991   1.263   1_545  A
C21         C389   1.486       .  S
C21         O987   1.262       .  A
C22         C429   1.479       .  S
C22         O989   1.268   1_545  A
O23          V31   1.920       .  S
O23          C33   1.268       .  A
O24          V31   1.909       .  S
O24          C34   1.264       .  A
O25          V31   1.898       .  S
O25          C35   1.267       .  A
O26          V31   1.898       .  S
O26          C36   1.264       .  A
O27          V32   1.897       .  S
O27          C36   1.264       .  A
O28          V32   1.899       .  S
O28          C35   1.262       .  A
O29          V32   1.923       .  S
O29          C34   1.269       .  A
O30          V32   1.918       .  S
O30          C33   1.268       .  A
V31          V32   2.082       .  T
C33         C329   1.500       .  S
C34         C349   1.501       .  S
C35         C369   1.495       .  S
C36         C449   1.492       .  S
C37          C38   1.415       .  A
C37         C530   1.391       .  A
C37         C398   1.475   1_556  S
C38         C527   1.413       .  A
C38         C338   1.520   1_556  S
C39          C40   1.427       .  A
C39         C526   1.418       .  A
C39          H44   1.084       .  S
C40          C41   1.495       .  A
C40         C115   1.571       .  S
C41          C42   1.400       .  A
C41         C100   1.538       .  S
C42         C525   1.394       .  A
C42          H43   1.080       .  S
C45          C70   1.621       .  S
C45          C46   1.564       .  S
C45          C51   1.512       .  S
C45          C49   1.580       .  S
C46          H53   1.085       .  S
C46          C47   1.409       .  D
C47         C164   1.534       .  S
C47          C48   1.571       .  S
C48          C52   1.633       .  S
C48          C50   1.510       .  S
C48          H54   1.110       .  S
C49          H55   1.084       .  S
C49          C50   1.396       .  D
C50          C77   1.516       .  S
C51          H56   1.084       .  S
C51          C52   1.334       .  D
C52         C157   1.575       .  S
C57         C156   1.588       .  S
C57          C63   1.481       .  S
C57        C1034   1.563   1_545  S
C57        C1037   1.569   1_545  S
C58        C1033   1.561       .  S
C58          H65   1.085       .  S
C58          C59   1.387       .  D
C59         C165   1.553       .  S
C59          C60   1.541       .  S
C60          C62   1.583       .  S
C60        C1040   1.650       .  S
C60          H66   1.109       .  S
C61        C1033   1.572       .  S
C61          H67   1.085       .  S
C61          C62   1.404       .  D
C62          C78   1.552       .  S
C63          H68   1.084       .  S
C63          C64   1.323       .  D
C64          C69   1.549       .  S
C64        C1036   1.647   1_545  S
C69          C70   1.516       .  A
C69          C74   1.409       .  A
C70          C71   1.415       .  A
C71         C560   1.408       .  A
C71          H76   1.083       .  S
C72          C73   1.414       .  A
C72         C559   1.407       .  A
C72         C298   1.499   1_556  S
C73         C562   1.397       .  A
C73         C318   1.497   1_556  S
C74         C561   1.397       .  A
C74          H75   1.082   1_545  S
C77          C78   1.478       .  A
C77          C82   1.389       .  A
C78          C79   1.426       .  A
C79          C80   1.424       .  A
C79          H84   1.080       .  S
C80          C81   1.370       .  A
C80         C249   1.550       .  S
C81          C82   1.373       .  A
C81         C269   1.391       .  S
C82          H83   1.088       .  S
C85          C86   1.372       .  A
C85          C90   1.422       .  A
C85         C209   1.546       .  S
C86          C87   1.387       .  A
C86         C229   1.409       .  S
C87          C88   1.399       .  A
C87          H92   1.086       .  S
C88          C89   1.500       .  A
C88         C118   1.552       .  S
C89          C90   1.426       .  A
C89          C93   1.586       .  S
C90          H91   1.082       .  S
C93          C99   1.479       .  S
C93        C1070   1.576       .  S
C93        C1073   1.574       .  S
C94        C1069   1.580   1_545  S
C94         H101   1.085       .  S
C94          C95   1.410       .  D
C95          C96   1.587       .  S
C96          C98   1.565       .  S
C96        C1076   1.622   1_545  S
C96         H102   1.101       .  S
C97        C1069   1.572   1_545  S
C97         H103   1.086       .  S
C97          C98   1.393       .  D
C98         C105   1.578       .  S
C99         H104   1.076       .  S
C99         C100   1.313       .  D
C100       C1072   1.626       .  S
C105        C106   1.510       .  A
C105        C110   1.412       .  A
C106        C107   1.405       .  A
C106        C120   1.537       .  S
C107        C108   1.396       .  A
C107        H112   1.082       .  S
C108        C109   1.408       .  A
C108        C666   1.486       .  S
C109        C110   1.396       .  A
C109        C686   1.490       .  S
C110        H111   1.085       .  S
C113        C114   1.570       .  S
C113        C119   1.454       .  S
C113        C117   1.573       .  S
C114        H121   1.085       .  S
C114        C115   1.392       .  D
C115        C116   1.588       .  S
C116        C120   1.638       .  S
C116        C118   1.560       .  S
C116        H122   1.108       .  S
C117        H123   1.085       .  S
C117        C118   1.390       .  D
C119        H124   1.055       .  S
C119        C120   1.308       .  D
O125        V133   1.913       .  S
O125        C135   1.270   1_545  A
O126        V133   1.928       .  S
O126       C1112   1.268       .  A
O127        V133   1.918       .  S
O127       C1113   1.267   1_545  A
O128        V133   1.897       .  S
O128        C138   1.264   1_545  A
O129        V134   1.905       .  S
O129       C1114   1.265       .  A
O130        V134   1.918       .  S
O130        C137   1.267       .  A
O131        V134   1.910       .  S
O131        C136   1.266       .  A
O132        V134   1.928       .  S
O132       C1111   1.269       .  A
V133       V1110   2.080   1_545  T
V134       V1109   2.081       .  T
C135        C309   1.523       .  S
C135       O1108   1.268       .  A
C136        C218   1.515       .  S
C136       O1102   1.270       .  A
C137        C258   1.494       .  S
C137       O1103   1.266       .  A
C138        C189   1.487   1_565  S
C138       O1105   1.265       .  A
O139        V147   1.899       .  S
O139        C149   1.265       .  A
O140        V147   1.892       .  S
O140        C150   1.263       .  A
O141        V147   1.901       .  S
O141        C151   1.266       .  A
O142        V147   1.930       .  S
O142        C152   1.268       .  A
O143        V148   1.924       .  S
O143        C152   1.272       .  A
O144        V148   1.912       .  S
O144        C151   1.266       .  A
O145        V148   1.918       .  S
O145        C150   1.269       .  A
O146        V148   1.914       .  S
O146        C149   1.268       .  A
V147        V148   2.075       .  T
C149        C289   1.497       .  S
C150        C238   1.488       .  S
C151        C278   1.490       .  S
C152        C169   1.513       .  S
C153        C154   1.368       .  A
C153        C158   1.436       .  A
C153        C358   1.572       .  S
C154        C155   1.366       .  A
C154        C438   1.380       .  S
C155        C156   1.385       .  A
C155        H160   1.085       .  S
C156        C157   1.515       .  A
C157        C158   1.440       .  A
C158        H159   1.076       .  S
C161        C162   1.404       .  A
C161        C166   1.395       .  A
C161        C906   1.499       .  S
C162        C163   1.385       .  A
C162        C866   1.475       .  S
C163        C164   1.405       .  A
C163        H168   1.087       .  S
C164        C165   1.488       .  A
C165        C166   1.422       .  A
C166        H167   1.082       .  S
C169        C170   1.400       .  A
C169        C174   1.413       .  A
C170        C171   1.406       .  A
C170       Br182   1.906       .  S
C171        C172   1.423       .  A
C171       Br186   1.910       .  S
C172        C173   1.421       .  A
C172        C175   1.530       .  S
C173        C174   1.414       .  A
C173       Br181   1.930       .  S
C174       Br185   1.897       .  S
C175        C176   1.435       .  A
C175        C180   1.439       .  A
C176        C177   1.414       .  A
C176       Br187   1.943       .  S
C177        C178   1.403       .  A
C177       Br671   1.931   1_554  S
C178        C179   1.397       .  A
C178        C596   1.493   1_554  S
C179        C180   1.410       .  A
C179       Br188   1.936       .  S
C180       Br184   1.936       .  S
Br183       C665   1.933       .  S
C189        C190   1.412       .  A
C189       C1170   1.414   1_545  A
C190        C191   1.405       .  A
C190       Br202   1.939       .  S
C191        C192   1.414       .  A
C191       Br206   1.905       .  S
C192        C193   1.400   1_545  A
C192        C195   1.501       .  S
C193       C1170   1.407       .  A
C193      Br1177   1.915       .  S
C194       C1165   1.413       .  A
C194       C1169   1.410       .  A
C194       Br205   1.919       .  S
C195        C196   1.414       .  A
C195        C200   1.425       .  A
C196        C197   1.406       .  A
C196       Br207   1.930   1_545  S
C197        C198   1.406       .  A
C197       Br203   1.928       .  S
C198        C199   1.404       .  A
C198        C597   1.482   1_554  S
C199        C200   1.406       .  A
C199       Br696   1.931   1_554  S
C200       Br204   1.941       .  S
Br201      C1169   1.914       .  S
Br208       C687   1.928       .  S
C209        C210   1.412       .  A
C209        C214   1.513       .  A
C210        C211   1.387       .  A
C210       Br222   1.939       .  S
C211        C212   1.392       .  A
C211      Br1202   1.932       .  S
C212        C213   1.444       .  A
C212        C215   1.527       .  S
C213        C214   1.506       .  A
C213       Br221   1.961       .  S
C214       Br225   3.716       .  S
C215        C216   1.416       .  A
C215        C220   1.412       .  A
C216        C217   1.416       .  A
C216       Br227   1.933       .  S
C217        C218   1.419       .  A
C217       Br223   1.928       .  S
C218        C219   1.411       .  A
C219        C220   1.418       .  A
C219       Br228   1.896       .  S
C220       Br224   1.929       .  S
Br226      C1187   1.935   1_545  S
C229        C230   1.621       .  A
C229        C234   1.610       .  A
C230        C231   1.622       .  A
C230       Br242   1.918       .  S
C231        C232   1.660       .  A
C231       Br246   1.935       .  S
C232        C233   1.619       .  A
C232        C235   1.520       .  S
C233        C234   1.591       .  A
C233       Br241   1.931       .  S
C234       Br245   1.924       .  S
C235        C236   1.417       .  A
C235        C240   1.432       .  A
C236        C237   1.388       .  A
C236       Br247   1.923       .  S
C237        C238   1.385       .  A
C237       Br243   1.889       .  S
C238        C239   1.407       .  A
C239        C240   1.427       .  A
C239       Br248   1.932       .  S
C240       Br244   1.924       .  S
C249        C250   1.531       .  A
C249        C254   1.414       .  A
C250        C251   1.502       .  A
C250       Br262   3.715       .  S
C251        C252   1.433       .  A
C251       Br266   1.966       .  S
C252        C253   1.388       .  A
C252        C255   1.517       .  S
C253        C254   1.381       .  A
C253      Br1237   1.923       .  S
C254       Br265   1.942       .  S
C255        C256   1.420       .  A
C255        C260   1.416       .  A
C256        C257   1.410       .  A
C256       Br267   1.945       .  S
C257        C258   1.408       .  A
C257       Br263   1.922       .  S
C258        C259   1.412       .  A
C259        C260   1.415       .  A
C259       Br268   1.918       .  S
C260       Br264   1.935       .  S
Br261      C1229   1.917   1_545  S
C269        C270   1.610       .  A
C269        C274   1.624       .  A
C270        C271   1.614       .  A
C270       Br282   1.918       .  S
C271        C272   1.666       .  A
C271       Br286   1.937       .  S
C272        C273   1.609       .  A
C272        C275   1.523       .  S
C273        C274   1.590       .  A
C273       Br281   1.933       .  S
C274       Br285   1.925       .  S
C275        C276   1.427       .  A
C275        C280   1.412       .  A
C276        C277   1.407       .  A
C276       Br287   1.921       .  S
C277        C278   1.406       .  A
C277       Br283   1.937       .  S
C278        C279   1.408       .  A
C279        C280   1.415       .  A
C279       Br288   1.905       .  S
C280       Br284   1.914       .  S
C289        C290   1.412       .  A
C289        C294   1.415       .  A
C290        C291   1.412       .  A
C290       Br302   1.931       .  S
C291        C292   1.416       .  A
C291       Br306   1.906       .  S
C292        C293   1.412       .  A
C292        C295   1.523       .  S
C293        C294   1.413       .  A
C293       Br301   1.902       .  S
C294       Br305   1.938       .  S
C295        C296   1.426       .  A
C295        C300   1.424       .  A
C296        C297   1.415       .  A
C296       Br307   1.944       .  S
C297        C298   1.409       .  A
C297       Br303   1.928       .  S
C298        C299   1.407       .  A
C299        C300   1.412       .  A
C299       Br796   1.932   1_554  S
C300       Br304   1.927       .  S
Br308       C787   1.933       .  S
C309        C310   1.423       .  A
C309        C314   1.412   1_565  A
C310        C311   1.427       .  A
C310      Br1298   1.918       .  S
C311        C312   1.420       .  A
C311       Br326   1.928       .  S
C312        C313   1.413   1_565  A
C312        C315   1.532       .  S
C313        C314   1.410       .  A
C313       Br321   1.900       .  S
C314       Br325   1.925       .  S
C315        C316   1.437       .  A
C315        C320   1.434       .  A
C316        C317   1.411       .  A
C316      Br1303   1.938       .  S
C317        C318   1.399   1_565  A
C317       Br323   1.932       .  S
C318        C319   1.401   1_554  A
C319        C320   1.415   1_546  A
C319       Br328   1.929       .  S
C320       Br324   1.935       .  S
Br322      C1286   1.924       .  S
Br327      C1292   1.933       .  S
C329        C330   1.402   1_655  A
C329        C334   1.409       .  A
C330        C331   1.410       .  A
C330       Br342   1.927       .  S
C331        C332   1.435       .  A
C331       Br346   1.951       .  S
C332        C333   1.439   1_455  A
C332        C335   1.549       .  S
C333        C334   1.428       .  A
C333       Br341   1.932       .  S
C334       Br345   1.932       .  S
C335        C336   1.423       .  A
C335        C340   1.441       .  A
C336        C337   1.407       .  A
C336       Br347   1.933       .  S
C337        C338   1.405       .  A
C337       Br343   1.918       .  S
C338        C339   1.411       .  A
C339        C340   1.429       .  A
C339       Br836   1.932   1_554  S
C340       Br344   1.929       .  S
Br348       C827   1.933       .  S
C349        C350   1.412       .  A
C349        C354   1.416       .  A
C350        C351   1.416       .  A
C350       Br362   1.926       .  S
C351        C352   1.417       .  A
C351       Br366   1.931       .  S
C352        C353   1.408       .  A
C352        C355   1.519       .  S
C353        C354   1.419       .  A
C353       Br361   1.939       .  S
C354       Br365   1.920       .  S
C355        C356   1.419       .  A
C355        C360   1.391       .  A
C356        C357   1.491       .  A
C356       Br367   1.959       .  S
C357        C358   1.536       .  A
C357       Br363   3.716   1_545  S
C358        C359   1.422       .  A
C359        C360   1.395       .  A
C359       Br368   1.938       .  S
C360       Br364   1.922       .  S
C369        C370   1.415       .  A
C369        C374   1.398       .  A
C370        C371   1.419       .  A
C370       Br382   1.915       .  S
C371        C372   1.411       .  A
C371       Br386   1.898       .  S
C372        C373   1.388       .  A
C372        C375   1.507       .  S
C373        C374   1.391       .  A
C373       Br381   1.886       .  S
C374       Br385   1.894       .  S
C375        C376   1.415       .  A
C375        C380   1.426       .  A
C376        C377   1.411       .  A
C376       Br387   1.928       .  S
C377        C378   1.407       .  A
C377       Br383   1.926       .  S
C378        C379   1.404       .  A
C378        C650   1.492       .  S
C379        C380   1.405       .  A
C379       Br876   1.936   1_554  S
C380       Br384   1.931       .  S
Br388       C867   1.931       .  S
C389        C394   1.403       .  A
C389       C1366   1.409   1_655  A
C390       C1365   1.408   1_455  A
C390       C1367   1.403       .  A
C390       Br402   1.916       .  S
C391        C392   1.408       .  A
C391       C1366   1.406       .  A
C391      Br1382   1.913       .  S
C392        C393   1.417       .  A
C392        C395   1.501       .  S
C393        C394   1.406   1_455  A
C393       Br401   1.919       .  S
C394       Br405   1.918       .  S
C395        C396   1.422       .  A
C395        C400   1.428       .  A
C396        C397   1.408   1_554  A
C396       Br407   1.942       .  S
C397        C398   1.404   1_556  A
C397       Br891   1.927       .  S
C398        C399   1.397       .  A
C399        C400   1.400       .  A
C399       Br408   1.935       .  S
C400       Br404   1.938       .  S
Br403       C885   1.924       .  S
Br406      C1367   1.893       .  S
C409        C410   1.410       .  A
C409        C414   1.412       .  A
C410        C411   1.410       .  A
C410       Br422   1.909       .  S
C411        C412   1.421       .  A
C411       Br426   1.943       .  S
C412        C413   1.420       .  A
C412        C415   1.510       .  S
C413        C414   1.414       .  A
C413      Br1397   1.940       .  S
C414      Br1401   1.920       .  S
C415        C416   1.416       .  A
C415        C420   1.419       .  A
C416        C417   1.399       .  A
C416       Br427   1.930       .  S
C417        C418   1.406       .  A
C417       Br911   1.921   1_554  S
C418        C419   1.415       .  A
C418        C649   1.505   1_554  S
C419        C420   1.415       .  A
C419       Br428   1.927       .  S
C420       Br424   1.925       .  S
Br421      C1389   1.933       .  S
Br423       C905   1.927       .  S
Br425      C1390   1.931       .  S
C429        C430   1.412       .  A
C429        C434   1.400   1_545  A
C430        C431   1.408       .  A
C430       Br442   1.937       .  S
C431        C432   1.421       .  A
C431       Br446   1.906       .  S
C432        C433   1.407   1_545  A
C432        C435   1.521       .  S
C433        C434   1.399       .  A
C433       Br441   1.884       .  S
C434      Br1421   1.924       .  S
C435        C436   1.660       .  A
C435        C440   1.625       .  A
C436        C437   1.604       .  A
C436       Br447   1.945       .  S
C437        C438   1.607       .  A
C437       Br443   1.921       .  S
C438        C439   1.616       .  A
C439        C440   1.596       .  A
C439       Br448   1.923       .  S
C440       Br444   1.935       .  S
Br445      C1410   1.922       .  S
C449        C450   1.412   1_655  A
C449        C454   1.413       .  A
C450        C451   1.406       .  A
C450       Br462   1.923       .  S
C451        C452   1.413       .  A
C451       Br466   1.915       .  S
C452        C453   1.401       .  A
C452        C455   1.506       .  S
C453        C454   1.407   1_455  A
C453       Br461   1.899       .  S
C454       Br465   1.924       .  S
C455        C456   1.428       .  A
C455        C460   1.416       .  A
C456        C457   1.405       .  A
C456       Br467   1.941       .  S
C457        C458   1.406       .  A
C457       Br463   1.935       .  S
C458        C459   1.404       .  A
C459        C460   1.406       .  A
C459       Br468   1.925       .  S
C460       Br464   1.934       .  S
C469        C470   1.414       .  A
C469        C474   1.405       .  A
C470        C471   1.424       .  A
C470       Br482   1.932       .  S
C471        C472   1.433       .  A
C471      Br1462   1.920   1_545  S
C472        C473   1.420       .  A
C472        C475   1.538       .  S
C473        C474   1.404       .  A
C473       Br481   1.929       .  S
C474       Br485   1.917       .  S
C475        C476   1.436       .  A
C475        C480   1.437       .  A
C476        C477   1.417       .  A
C476       Br487   1.938       .  S
C477        C478   1.404   1_455  A
C477       Br483   1.932   1_545  S
C478        C479   1.402       .  A
C479        C480   1.412   1_655  A
C479      Br1464   1.932       .  S
C480       Br484   1.953   1_455  S
Br486      C1447   1.930       .  S
Br488      C1455   1.927       .  S
C489        C490   1.414       .  A
C489        C494   1.386       .  A
C489        C946   1.476       .  S
C490        C491   1.412       .  A
C490        C957   1.513       .  S
C491        C492   1.419       .  A
C491        H496   1.084       .  S
C492        C493   1.504       .  A
C492        C583   1.577       .  S
C493        C494   1.398       .  A
C493        C601   1.568       .  S
C494        H495   1.086       .  S
O497        V505   1.914       .  S
O497       C1483   1.267       .  A
O498        V505   1.914       .  S
O498        C508   1.269       .  A
O499        V505   1.906       .  S
O499       C1485   1.264       .  A
O500        V505   1.895       .  S
O500        C510   1.264       .  A
O501        V506   1.923       .  S
O501       C1486   1.269       .  A
O502        V506   1.903       .  S
O502        C509   1.266       .  A
O503        V506   1.910       .  S
O503       C1484   1.266       .  A
O504        V506   1.908       .  S
O504        C507   1.265       .  A
V505       V1482   2.084   1_545  T
V506       V1481   2.085       .  T
C507        C897   1.490       .  S
C507       O1473   1.264       .  A
C508        C966   1.491       .  S
C508       O1479   1.262   1_545  A
C509        C877   1.472       .  S
C509       O1475   1.258       .  A
C510        C917   1.500       .  S
C510       O1477   1.268   1_545  A
O511        V519   1.927       .  S
O511        C521   1.270       .  A
O512        V519   1.911       .  S
O512        C522   1.266       .  A
O513        V519   1.916       .  S
O513        C523   1.268       .  A
O514        V519   1.911       .  S
O514        C524   1.267       .  A
O515        V520   1.905       .  S
O515        C524   1.266       .  A
O516        V520   1.903       .  S
O516        C523   1.264       .  A
O517        V520   1.911       .  S
O517        C522   1.265       .  A
O518        V520   1.922       .  S
O518        C521   1.269       .  A
V519        V520   2.080       .  T
C521        C817   1.510       .  S
C522        C837   1.495       .  S
C523        C857   1.489       .  S
C524        C937   1.509       .  S
C525        C526   1.418       .  A
C525        C886   1.477       .  S
C526        C826   1.530       .  S
C527        C528   1.425       .  A
C527        H532   1.085       .  S
C528        C529   1.496       .  A
C528        C603   1.566       .  S
C529        C530   1.399       .  A
C529        C588   1.536       .  S
C530        H531   1.079       .  S
C533        C558   1.621       .  S
C533        C534   1.554       .  S
C533        C539   1.514       .  S
C533        C537   1.582       .  S
C534        H541   1.085       .  S
C534        C535   1.401       .  D
C535        C652   1.558       .  S
C535        C536   1.596       .  S
C536        C540   1.652       .  S
C536        C538   1.527       .  S
C536        H542   1.110       .  S
C537        H543   1.084       .  S
C537        C538   1.400       .  D
C538        C565   1.541       .  S
C539        H544   1.083       .  S
C539        C540   1.337       .  D
C540        C645   1.594       .  S
C545        C644   1.588       .  S
C545       C1522   1.569   1_545  S
C545        C551   1.483       .  S
C545       C1525   1.574   1_545  S
C546       C1521   1.566       .  S
C546        H553   1.086       .  S
C546        C547   1.383       .  D
C547        C653   1.540       .  S
C547        C548   1.534       .  S
C548       C1528   1.642       .  S
C548        C550   1.574       .  S
C548        H554   1.108       .  S
C549       C1521   1.570       .  S
C549        H555   1.086       .  S
C549        C550   1.405       .  D
C550        C566   1.537       .  S
C551        H556   1.084       .  S
C551        C552   1.323       .  D
C552        C557   1.544       .  S
C552       C1524   1.641   1_545  S
C557        C558   1.512       .  A
C557        C562   1.409       .  A
C558        C559   1.416       .  A
C559        H564   1.083       .  S
C560        C561   1.414       .  A
C560        C786   1.494       .  S
C561        C806   1.503       .  S
C562        H563   1.082   1_545  S
C565        C566   1.482       .  A
C565        C570   1.396       .  A
C566        C567   1.429       .  A
C567        C568   1.419       .  A
C567        H572   1.080       .  S
C568        C569   1.377       .  A
C568        C737   1.559       .  S
C569        C570   1.386       .  A
C569        C757   1.392       .  S
C570        H571   1.087       .  S
C573        C574   1.375       .  A
C573        C578   1.426       .  A
C573        C697   1.544       .  S
C574        C575   1.381       .  A
C574        C717   1.405       .  S
C575        C576   1.393       .  A
C575        H580   1.086       .  S
C576        C577   1.499       .  A
C576        C606   1.549       .  S
C577        C578   1.428       .  A
C577        C581   1.594       .  S
C578        H579   1.082       .  S
C581       C1558   1.577       .  S
C581        C587   1.478       .  S
C581       C1561   1.582       .  S
C582       C1557   1.576   1_545  S
C582        H589   1.085       .  S
C582        C583   1.408       .  D
C583        C584   1.588       .  S
C584       C1564   1.624   1_545  S
C584        C586   1.572       .  S
C584        H590   1.105       .  S
C585       C1557   1.575   1_545  S
C585        H591   1.086       .  S
C585        C586   1.397       .  D
C586        C593   1.586       .  S
C587        H592   1.077       .  S
C587        C588   1.311       .  D
C588       C1560   1.625       .  S
C593        C594   1.512       .  A
C593        C598   1.407       .  A
C594        C595   1.408       .  A
C594        C608   1.531       .  S
C595        C596   1.393       .  A
C595        H600   1.082       .  S
C596        C597   1.410       .  A
C597        C598   1.396       .  A
C598        H599   1.086       .  S
C601        C602   1.565       .  S
C601        C607   1.454       .  S
C601        C605   1.576       .  S
C602        H609   1.085       .  S
C602        C603   1.393       .  D
C603        C604   1.586       .  S
C604        C608   1.635       .  S
C604        C606   1.553       .  S
C604        H610   1.108       .  S
C605        H611   1.084       .  S
C605        C606   1.391       .  D
C607        H612   1.035       .  S
C607        C608   1.307       .  D
O613        V621   1.929       .  S
O613        C623   1.272   1_545  A
O614        V621   1.937       .  S
O614       C1600   1.271   1_545  A
O615        V621   1.919       .  S
O615       C1601   1.267   1_545  A
O616        V621   1.904       .  S
O616        C626   1.266   1_545  A
O617        V622   1.902       .  S
O617       C1602   1.264       .  A
O618        V622   1.925       .  S
O618        C625   1.269       .  A
O619        V622   1.924       .  S
O619        C624   1.271       .  A
O620        V622   1.929       .  S
O620       C1599   1.270       .  A
V621       V1598   2.079   1_545  T
V622       V1597   2.080       .  T
C623        C797   1.543       .  S
C623       O1596   1.273       .  A
C624        C706   1.518       .  S
C624       O1590   1.270       .  A
C625        C746   1.512       .  S
C625       O1591   1.270       .  A
C626        C677   1.492   1_565  S
C626       O1593   1.264       .  A
O627        V635   1.903       .  S
O627        C637   1.267       .  A
O628        V635   1.892       .  S
O628        C638   1.264       .  A
O629        V635   1.895       .  S
O629        C639   1.263       .  A
O630        V635   1.927       .  S
O630        C640   1.268       .  A
O631        V636   1.919       .  S
O631        C640   1.271       .  A
O632        V636   1.895       .  S
O632        C639   1.264       .  A
O633        V636   1.896       .  S
O633        C638   1.263       .  A
O634        V636   1.900       .  S
O634        C637   1.263       .  A
V635        V636   2.080       .  T
C637        C777   1.491       .  S
C638        C726   1.469       .  S
C639        C766   1.475       .  S
C640        C657   1.507       .  S
C641        C642   1.366       .  A
C641        C646   1.443       .  A
C641        C846   1.567       .  S
C642        C643   1.364       .  A
C642        C926   1.398       .  S
C643        C644   1.392       .  A
C643        H648   1.084   1_545  S
C644        C645   1.522       .  A
C645        C646   1.443       .  A
C646        H647   1.079       .  S
C649        C650   1.409   1_556  A
C649        C654   1.394       .  A
C650        C651   1.397   1_554  A
C651        C652   1.419       .  A
C651        H656   1.084       .  S
C652        C653   1.490       .  A
C653        C654   1.421       .  A
C654        H655   1.083       .  S
C657        C658   1.398       .  A
C657        C662   1.413       .  A
C658        C659   1.406       .  A
C658       Br670   1.913       .  S
C659        C660   1.424       .  A
C659       Br674   1.905       .  S
C660        C661   1.412       .  A
C660        C663   1.527       .  S
C661        C662   1.409       .  A
C661       Br669   1.921       .  S
C662       Br673   1.888       .  S
C663        C664   1.432       .  A
C663        C668   1.443       .  A
C664        C665   1.409       .  A
C664       Br675   1.935       .  S
C665        C666   1.398       .  A
C666        C667   1.398       .  A
C667        C668   1.412       .  A
C667       Br676   1.936       .  S
C668       Br672   1.945       .  S
C677        C678   1.413       .  A
C677       C1658   1.414   1_545  A
C678        C679   1.407       .  A
C678       Br690   1.937       .  S
C679        C680   1.410       .  A
C679       Br694   1.897       .  S
C680        C681   1.402   1_545  A
C680        C683   1.507       .  S
C681       C1658   1.410       .  A
C681      Br1665   1.907       .  S
C682       C1653   1.414       .  A
C682       C1657   1.411       .  A
C682       Br693   1.921       .  S
C683        C684   1.418       .  A
C683        C688   1.423       .  A
C684        C685   1.408       .  A
C684       Br695   1.927   1_545  S
C685        C686   1.405       .  A
C685       Br691   1.928       .  S
C686        C687   1.407       .  A
C687        C688   1.410       .  A
C688       Br692   1.938       .  S
Br689      C1657   1.911       .  S
C697        C698   1.412       .  A
C697        C702   1.510       .  A
C698        C699   1.389       .  A
C698       Br710   1.936       .  S
C699        C700   1.394       .  A
C699      Br1690   1.933       .  S
C700        C701   1.448       .  A
C700        C703   1.528       .  S
C701        C702   1.505       .  A
C701       Br709   1.960       .  S
C702       Br713   3.724       .  S
C703        C704   1.420       .  A
C703        C708   1.407       .  A
C704        C705   1.423       .  A
C704       Br715   1.929       .  S
C705        C706   1.416       .  A
C705       Br711   1.926       .  S
C706        C707   1.408       .  A
C707        C708   1.414       .  A
C707       Br716   1.884       .  S
C708       Br712   1.928       .  S
Br714      C1675   1.932   1_545  S
C717        C718   1.618       .  A
C717        C722   1.612       .  A
C718        C719   1.618       .  A
C718       Br730   1.916       .  S
C719        C720   1.653       .  A
C719       Br734   1.935       .  S
C720        C721   1.605       .  A
C720        C723   1.498       .  S
C721        C722   1.584       .  A
C721       Br729   1.934       .  S
C722       Br733   1.918       .  S
C723        C724   1.417       .  A
C723        C728   1.421       .  A
C724        C725   1.384       .  A
C724       Br735   1.931       .  S
C725        C726   1.383       .  A
C725       Br731   1.887       .  S
C726        C727   1.406       .  A
C727        C728   1.416       .  A
C727       Br736   1.928       .  S
C728       Br732   1.925       .  S
C737        C738   1.516       .  A
C737        C742   1.406       .  A
C738        C739   1.506       .  A
C738       Br750   3.711       .  S
C739        C740   1.439       .  A
C739       Br754   1.963       .  S
C740        C741   1.394       .  A
C740        C743   1.540       .  S
C741        C742   1.387       .  A
C741      Br1725   1.905       .  S
C742       Br753   1.932       .  S
C743        C744   1.419       .  A
C743        C748   1.427       .  A
C744        C745   1.416       .  A
C744       Br755   1.942       .  S
C745        C746   1.413       .  A
C745       Br751   1.916       .  S
C746        C747   1.411       .  A
C747        C748   1.424       .  A
C747       Br756   1.919       .  S
C748       Br752   1.932       .  S
Br749      C1717   1.917   1_545  S
C757        C758   1.614       .  A
C757        C762   1.626       .  A
C758        C759   1.614       .  A
C758       Br770   1.917       .  S
C759        C760   1.662       .  A
C759       Br774   1.941       .  S
C760        C761   1.606       .  A
C760        C763   1.498       .  S
C761        C762   1.588       .  A
C761       Br769   1.931       .  S
C762       Br773   1.923       .  S
C763        C764   1.423       .  A
C763        C768   1.395       .  A
C764        C765   1.407       .  A
C764       Br775   1.917       .  S
C765        C766   1.406       .  A
C765       Br771   1.931       .  S
C766        C767   1.401       .  A
C767        C768   1.396       .  A
C767       Br776   1.892       .  S
C768       Br772   1.903       .  S
C777        C778   1.410       .  A
C777        C782   1.411       .  A
C778        C779   1.410       .  A
C778       Br790   1.938       .  S
C779        C780   1.418       .  A
C779       Br794   1.907       .  S
C780        C781   1.418       .  A
C780        C783   1.522       .  S
C781        C782   1.412       .  A
C781       Br789   1.913       .  S
C782       Br793   1.937       .  S
C783        C784   1.430       .  A
C783        C788   1.430       .  A
C784        C785   1.413       .  A
C784       Br795   1.941       .  S
C785        C786   1.404       .  A
C785       Br791   1.930       .  S
C786        C787   1.404       .  A
C787        C788   1.413       .  A
C788       Br792   1.936       .  S
C797        C798   1.425       .  A
C797        C802   1.420   1_565  A
C798        C799   1.431       .  A
C798      Br1786   1.920       .  S
C799        C800   1.415       .  A
C799       Br814   1.911       .  S
C800        C801   1.411   1_565  A
C800        C803   1.541       .  S
C801        C802   1.416       .  A
C801       Br809   1.907       .  S
C802       Br813   1.912       .  S
C803        C804   1.432       .  A
C803        C808   1.433       .  A
C804        C805   1.416   1_565  A
C804      Br1791   1.927       .  S
C805        C806   1.404       .  A
C805       Br811   1.935   1_545  S
C806        C807   1.405       .  A
C807        C808   1.418   1_545  A
C807       Br816   1.929       .  S
C808       Br812   1.936       .  S
Br810      C1774   1.920       .  S
Br815      C1780   1.929       .  S
C817        C818   1.409   1_655  A
C817        C822   1.408       .  A
C818        C819   1.418       .  A
C818       Br830   1.930       .  S
C819        C820   1.438       .  A
C819       Br834   1.953       .  S
C820        C821   1.432       .  A
C820        C823   1.548       .  S
C821        C822   1.423   1_455  A
C821       Br829   1.930   1_455  S
C822       Br833   1.919       .  S
C823        C824   1.418       .  A
C823        C828   1.439       .  A
C824        C825   1.411       .  A
C824       Br835   1.930       .  S
C825        C826   1.409       .  A
C825       Br831   1.917       .  S
C826        C827   1.414       .  A
C827        C828   1.430       .  A
C828       Br832   1.926       .  S
C837        C838   1.413       .  A
C837        C842   1.416       .  A
C838        C839   1.411       .  A
C838       Br850   1.928       .  S
C839        C840   1.413       .  A
C839       Br854   1.929       .  S
C840        C841   1.409       .  A
C840        C843   1.513       .  S
C841        C842   1.416       .  A
C841       Br849   1.928       .  S
C842       Br853   1.924       .  S
C843        C844   1.418       .  A
C843        C848   1.387       .  A
C844        C845   1.490       .  A
C844       Br855   1.956       .  S
C845        C846   1.539       .  A
C845       Br851   3.712   1_545  S
C846        C847   1.423       .  A
C847        C848   1.395       .  A
C847       Br856   1.938       .  S
C848       Br852   1.927       .  S
C857        C858   1.401       .  A
C857        C862   1.410       .  A
C858        C859   1.405       .  A
C858       Br870   1.924       .  S
C859        C860   1.420       .  A
C859       Br874   1.914       .  S
C860        C861   1.404       .  A
C860        C863   1.497       .  S
C861        C862   1.402       .  A
C861       Br869   1.930       .  S
C862       Br873   1.899       .  S
C863        C864   1.421       .  A
C863        C868   1.410       .  A
C864        C865   1.407       .  A
C864       Br875   1.935       .  S
C865        C866   1.406       .  A
C865       Br871   1.932       .  S
C866        C867   1.405       .  A
C867        C868   1.401       .  A
C868       Br872   1.913       .  S
C877       C1854   1.406   1_655  A
C877        C882   1.406       .  A
C878       C1853   1.415   1_455  A
C878       C1855   1.411       .  A
C878       Br890   1.903       .  S
C879       C1854   1.398       .  A
C879        C880   1.403       .  A
C879      Br1870   1.896       .  S
C880        C881   1.422       .  A
C880        C883   1.502       .  S
C881        C882   1.408   1_455  A
C881       Br889   1.923       .  S
C882       Br893   1.930       .  S
C883        C884   1.417       .  A
C883        C888   1.433       .  A
C884        C885   1.406       .  A
C884       Br895   1.935       .  S
C885        C886   1.403       .  A
C886        C887   1.397       .  A
C887        C888   1.400       .  A
C887       Br896   1.933       .  S
C888       Br892   1.945       .  S
Br894      C1855   1.906       .  S
C897        C898   1.401       .  A
C897        C902   1.414       .  A
C898        C899   1.408       .  A
C898       Br910   1.936       .  S
C899        C900   1.422       .  A
C899       Br914   1.914       .  S
C900        C901   1.419       .  A
C900        C903   1.519       .  S
C901        C902   1.421       .  A
C901      Br1885   1.926       .  S
C902      Br1889   1.930       .  S
C903        C904   1.418       .  A
C903        C908   1.411       .  A
C904        C905   1.419       .  A
C904       Br915   1.931       .  S
C905        C906   1.414       .  A
C906        C907   1.407       .  A
C907        C908   1.407       .  A
C907       Br916   1.932       .  S
C908       Br912   1.899       .  S
Br909      C1877   1.928       .  S
Br913      C1878   1.926       .  S
C917        C918   1.406       .  A
C917        C922   1.402   1_545  A
C918        C919   1.413       .  A
C918       Br930   1.914       .  S
C919        C920   1.423       .  A
C919       Br934   1.914       .  S
C920        C921   1.410   1_545  A
C920        C923   1.527       .  S
C921        C922   1.406       .  A
C921       Br929   1.907       .  S
C922      Br1909   1.905       .  S
C923        C924   1.655   1_545  A
C923        C928   1.625       .  A
C924        C925   1.609       .  A
C924       Br935   1.941       .  S
C925        C926   1.609   1_565  A
C925       Br931   1.919       .  S
C926        C927   1.622       .  A
C927        C928   1.604       .  A
C927       Br936   1.921       .  S
C928       Br932   1.928       .  S
Br933      C1898   1.892       .  S
C937        C938   1.417   1_655  A
C937        C942   1.412   1_655  A
C938        C939   1.413       .  A
C938       Br950   1.904       .  S
C939        C940   1.410       .  A
C939       Br954   1.918       .  S
C940        C941   1.385       .  A
C940        C943   1.498       .  S
C941        C942   1.396       .  A
C941       Br949   1.893       .  S
C942       Br953   1.885   1_455  S
C943        C944   1.430       .  A
C943        C948   1.409       .  A
C944        C945   1.402       .  A
C944       Br955   1.944       .  S
C945        C946   1.403       .  A
C945       Br951   1.935       .  S
C946        C947   1.404       .  A
C947        C948   1.402       .  A
C947       Br956   1.923       .  S
C948       Br952   1.928       .  S
C957        C958   1.409       .  A
C957        C962   1.408       .  A
C958        C959   1.416       .  A
C958       Br970   1.934       .  S
C959        C960   1.430       .  A
C959      Br1950   1.907   1_545  S
C960        C961   1.420       .  A
C960        C963   1.537       .  S
C961        C962   1.408       .  A
C961       Br969   1.929       .  S
C962       Br973   1.919       .  S
C963        C964   1.432       .  A
C963        C968   1.432       .  A
C964        C965   1.420       .  A
C964       Br975   1.934   1_545  S
C965        C966   1.408   1_455  A
C965       Br971   1.935   1_545  S
C966        C967   1.404       .  A
C967        C968   1.414   1_655  A
C967      Br1952   1.933       .  S
C968       Br972   1.946   1_455  S
Br974      C1935   1.930       .  S
Br976      C1943   1.929       .  S
C977        C978   1.415       .  A
C977        C982   1.383       .  A
C977       C1434   1.475       .  S
C978        C979   1.412       .  A
C978       C1445   1.510       .  S
C979        C980   1.420       .  A
C979        H984   1.084       .  S
C980        C981   1.505       .  A
C980       C1071   1.577       .  S
C981        C982   1.394       .  A
C981       C1089   1.567       .  S
C982        H983   1.087       .  S
O985        V993   1.914       .  S
O986        V993   1.913       .  S
O986        C996   1.268       .  A
O987        V993   1.893       .  S
O988        V993   1.887       .  S
O988        C998   1.259       .  A
O989        V994   1.904       .  S
O990        V994   1.907       .  S
O990        C997   1.268   1_565  A
O991        V994   1.904       .  S
O992        V994   1.907       .  S
O992        C995   1.264   1_565  A
C995       C1385   1.491       .  S
C996       C1454   1.486       .  S
C997       C1365   1.485       .  S
C998       C1405   1.489       .  S
O999       V1007   1.928       .  S
O999       C1009   1.271       .  A
O1000      V1007   1.925       .  S
O1000      C1010   1.269       .  A
O1001      V1007   1.903       .  S
O1001      C1011   1.264       .  A
O1002      V1007   1.889       .  S
O1002      C1012   1.261       .  A
O1003      V1008   1.912       .  S
O1003      C1012   1.268       .  A
O1004      V1008   1.907       .  S
O1004      C1011   1.267       .  A
O1005      V1008   1.926       .  S
O1005      C1010   1.268       .  A
O1006      V1008   1.913       .  S
O1006      C1009   1.265       .  A
V1007      V1008   2.080       .  T
C1009      C1305   1.501       .  S
C1010      C1325   1.516       .  S
C1011      C1345   1.497       .  S
C1012      C1425   1.497       .  S
C1013      C1014   1.415       .  A
C1013      C1506   1.394       .  A
C1013      C1374   1.477   1_556  S
C1014      C1503   1.406       .  A
C1014      C1314   1.507   1_556  S
C1015      C1502   1.412       .  A
C1015      C1016   1.416       .  A
C1015      H1020   1.085       .  S
C1016      C1017   1.494       .  A
C1016      C1091   1.568       .  S
C1017      C1018   1.401       .  A
C1017      C1076   1.527       .  S
C1018      C1501   1.388       .  A
C1018      H1019   1.078   1_565  S
C1021      C1046   1.615       .  S
C1021      C1022   1.558       .  S
C1021      C1027   1.511       .  S
C1021      C1025   1.585       .  S
C1022      H1029   1.086       .  S
C1022      C1023   1.403       .  D
C1023      C1140   1.536       .  S
C1023      C1024   1.576       .  S
C1024      C1028   1.635       .  S
C1024      C1026   1.512       .  S
C1024      H1030   1.110       .  S
C1025      H1031   1.084       .  S
C1025      C1026   1.400       .  D
C1026      C1053   1.520       .  S
C1027      H1032   1.083       .  S
C1027      C1028   1.333       .  D
C1028      C1133   1.575       .  S
C1033      C1132   1.590       .  S
C1033      C1039   1.480       .  S
C1034      H1041   1.086   1_565  S
C1034      C1035   1.387       .  D
C1035      C1141   1.547       .  S
C1035      C1036   1.540       .  S
C1036      C1038   1.580       .  S
C1036      H1042   1.109       .  S
C1037      H1043   1.086       .  S
C1037      C1038   1.403       .  D
C1038      C1054   1.546       .  S
C1039      H1044   1.084       .  S
C1039      C1040   1.324       .  D
C1040      C1045   1.551       .  S
C1045      C1046   1.515       .  A
C1045      C1050   1.406       .  A
C1046      C1047   1.413       .  A
C1047      C1536   1.403       .  A
C1047      H1052   1.084       .  S
C1048      C1535   1.401       .  A
C1048      C1049   1.413       .  A
C1048      C1274   1.489   1_556  S
C1049      C1538   1.399       .  A
C1049      C1294   1.502   1_556  S
C1050      C1537   1.397       .  A
C1050      H1051   1.083       .  S
C1053      C1054   1.477       .  A
C1053      C1058   1.388       .  A
C1054      C1055   1.428       .  A
C1055      C1056   1.423       .  A
C1055      H1060   1.079       .  S
C1056      C1057   1.376       .  A
C1056      C1225   1.555       .  S
C1057      C1058   1.376       .  A
C1057      C1245   1.389       .  S
C1058      H1059   1.088       .  S
C1061      C1062   1.372       .  A
C1061      C1066   1.417       .  A
C1061      C1185   1.536       .  S
C1062      C1063   1.385       .  A
C1062      C1205   1.411       .  S
C1063      C1064   1.399       .  A
C1063      H1068   1.086       .  S
C1064      C1065   1.501       .  A
C1064      C1094   1.550       .  S
C1065      C1066   1.419       .  A
C1065      C1069   1.585       .  S
C1066      H1067   1.082       .  S
C1069      C1075   1.472       .  S
C1070      H1077   1.085       .  S
C1070      C1071   1.407       .  D
C1071      C1072   1.590       .  S
C1072      C1074   1.565       .  S
C1072      H1078   1.104       .  S
C1073      H1079   1.086       .  S
C1073      C1074   1.394       .  D
C1074      C1081   1.578       .  S
C1075      H1080   1.076       .  S
C1075      C1076   1.311       .  D
C1081      C1082   1.512       .  A
C1081      C1086   1.412       .  A
C1082      C1083   1.400       .  A
C1082      C1096   1.536       .  S
C1083      C1084   1.392       .  A
C1083      H1088   1.082       .  S
C1084      C1085   1.410       .  A
C1084      C1642   1.482       .  S
C1085      C1086   1.396       .  A
C1085      C1662   1.491       .  S
C1086      H1087   1.085       .  S
C1089      C1090   1.571       .  S
C1089      C1095   1.448       .  S
C1089      C1093   1.573       .  S
C1090      H1097   1.084       .  S
C1090      C1091   1.393       .  D
C1091      C1092   1.583       .  S
C1092      C1096   1.641       .  S
C1092      C1094   1.559       .  S
C1092      H1098   1.108       .  S
C1093      H1099   1.085       .  S
C1093      C1094   1.388       .  D
C1095      H1100   1.072       .  S
C1095      C1096   1.303       .  D
O1101      V1109   1.921       .  S
O1101      C1111   1.271       .  A
O1102      V1109   1.933       .  S
O1103      V1109   1.916       .  S
O1104      V1109   1.899       .  S
O1104      C1114   1.265       .  A
O1105      V1110   1.904       .  S
O1106      V1110   1.925       .  S
O1106      C1113   1.270       .  A
O1107      V1110   1.914       .  S
O1107      C1112   1.267   1_565  A
O1108      V1110   1.927       .  S
C1111      C1285   1.530       .  S
C1112      C1194   1.513       .  S
C1113      C1234   1.505       .  S
C1114      C1165   1.491       .  S
O1115      V1123   1.911       .  S
O1115      C1125   1.268       .  A
O1116      V1123   1.904       .  S
O1116      C1126   1.266       .  A
O1117      V1123   1.898       .  S
O1117      C1127   1.265       .  A
O1118      V1123   1.926       .  S
O1118      C1128   1.267       .  A
O1119      V1124   1.924       .  S
O1119      C1128   1.272       .  A
O1120      V1124   1.908       .  S
O1120      C1127   1.265       .  A
O1121      V1124   1.918       .  S
O1121      C1126   1.268       .  A
O1122      V1124   1.920       .  S
O1122      C1125   1.268       .  A
V1123      V1124   2.078       .  T
C1125      C1265   1.510       .  S
C1126      C1214   1.493       .  S
C1127      C1254   1.483       .  S
C1128      C1145   1.509       .  S
C1129      C1130   1.368       .  A
C1129      C1134   1.438       .  A
C1129      C1334   1.574       .  S
C1130      C1131   1.366       .  A
C1130      C1414   1.381       .  S
C1131      C1132   1.386       .  A
C1131      H1136   1.085       .  S
C1132      C1133   1.516       .  A
C1133      C1134   1.440       .  A
C1134      H1135   1.076       .  S
C1137      C1138   1.407       .  A
C1137      C1142   1.394       .  A
C1137      C1882   1.493       .  S
C1138      C1139   1.389       .  A
C1138      C1842   1.486       .  S
C1139      C1140   1.410       .  A
C1139      H1144   1.086       .  S
C1140      C1141   1.487       .  A
C1141      C1142   1.418       .  A
C1142      H1143   1.085       .  S
C1145      C1146   1.397       .  A
C1145      C1150   1.419       .  A
C1146      C1147   1.402       .  A
C1146     Br1158   1.909       .  S
C1147      C1148   1.420       .  A
C1147     Br1162   1.897       .  S
C1148      C1149   1.417       .  A
C1148      C1151   1.530       .  S
C1149      C1150   1.411       .  A
C1149     Br1157   1.923       .  S
C1150     Br1161   1.905       .  S
C1151      C1152   1.433       .  A
C1151      C1156   1.437       .  A
C1152      C1153   1.415       .  A
C1152     Br1163   1.942       .  S
C1153      C1154   1.405       .  A
C1153     Br1647   1.931   1_554  S
C1154      C1155   1.400       .  A
C1154      C1572   1.501       .  S
C1155      C1156   1.414       .  A
C1155     Br1164   1.932       .  S
C1156     Br1160   1.937       .  S
Br1159     C1641   1.932       .  S
C1165      C1166   1.415       .  A
C1166      C1167   1.408       .  A
C1166     Br1178   1.940       .  S
C1167      C1168   1.415       .  A
C1167     Br1182   1.909       .  S
C1168      C1169   1.405       .  A
C1168      C1171   1.509       .  S
C1170     Br1181   1.914       .  S
C1171      C1172   1.420       .  A
C1171      C1176   1.427       .  A
C1172      C1173   1.412       .  A
C1172     Br1183   1.931       .  S
C1173      C1174   1.406       .  A
C1173     Br1179   1.928       .  S
C1174      C1175   1.402       .  A
C1174      C1573   1.487       .  S
C1175      C1176   1.406       .  A
C1175     Br1672   1.930   1_554  S
C1176     Br1180   1.942       .  S
Br1184     C1663   1.930       .  S
C1185      C1186   1.416       .  A
C1185      C1190   1.511       .  A
C1186      C1187   1.384       .  A
C1186     Br1198   1.942       .  S
C1187      C1188   1.389       .  A
C1188      C1189   1.443       .  A
C1188      C1191   1.516       .  S
C1189      C1190   1.499       .  A
C1189     Br1197   1.961       .  S
C1190     Br1201   3.714       .  S
C1191      C1192   1.413       .  A
C1191      C1196   1.404   1_565  A
C1192      C1193   1.416       .  A
C1192     Br1203   1.932       .  S
C1193      C1194   1.419   1_565  A
C1193     Br1199   1.924       .  S
C1194      C1195   1.412       .  A
C1195      C1196   1.413       .  A
C1195     Br1204   1.884       .  S
C1196     Br1200   1.929       .  S
C1205      C1206   1.620       .  A
C1205      C1210   1.613       .  A
C1206      C1207   1.621       .  A
C1206     Br1218   1.918       .  S
C1207      C1208   1.659       .  A
C1207     Br1222   1.937       .  S
C1208      C1209   1.617       .  A
C1208      C1211   1.522       .  S
C1209      C1210   1.595       .  A
C1209     Br1217   1.929       .  S
C1210     Br1221   1.921       .  S
C1211      C1212   1.420       .  A
C1211      C1216   1.427       .  A
C1212      C1213   1.396       .  A
C1212     Br1223   1.925       .  S
C1213      C1214   1.391       .  A
C1213     Br1219   1.898       .  S
C1214      C1215   1.411       .  A
C1215      C1216   1.424       .  A
C1215     Br1224   1.929       .  S
C1216     Br1220   1.925       .  S
C1225      C1226   1.522       .  A
C1225      C1230   1.413       .  A
C1226      C1227   1.505       .  A
C1226     Br1238   3.717       .  S
C1227      C1228   1.438       .  A
C1227     Br1242   1.959       .  S
C1228      C1229   1.393       .  A
C1228      C1231   1.537       .  S
C1229      C1230   1.388       .  A
C1230     Br1241   1.937   1_565  S
C1231      C1232   1.422       .  A
C1231      C1236   1.425       .  A
C1232      C1233   1.412       .  A
C1232     Br1243   1.942       .  S
C1233      C1234   1.406       .  A
C1233     Br1239   1.919       .  S
C1234      C1235   1.411       .  A
C1235      C1236   1.421       .  A
C1235     Br1244   1.912       .  S
C1236     Br1240   1.936       .  S
C1245      C1246   1.605       .  A
C1245      C1250   1.619       .  A
C1246      C1247   1.610       .  A
C1246     Br1258   1.918       .  S
C1247      C1248   1.669       .  A
C1247     Br1262   1.943       .  S
C1248      C1249   1.613       .  A
C1248      C1251   1.510       .  S
C1249      C1250   1.586       .  A
C1249     Br1257   1.933       .  S
C1250     Br1261   1.925       .  S
C1251      C1252   1.425       .  A
C1251      C1256   1.407       .  A
C1252      C1253   1.403       .  A
C1252     Br1263   1.922       .  S
C1253      C1254   1.405       .  A
C1253     Br1259   1.934       .  S
C1254      C1255   1.406       .  A
C1255      C1256   1.408       .  A
C1255     Br1264   1.899       .  S
C1256     Br1260   1.915       .  S
C1265      C1266   1.417       .  A
C1265      C1270   1.418       .  A
C1266      C1267   1.415       .  A
C1266     Br1278   1.930       .  S
C1267      C1268   1.417       .  A
C1267     Br1282   1.912       .  S
C1268      C1269   1.404       .  A
C1268      C1271   1.521       .  S
C1269      C1270   1.413       .  A
C1269     Br1277   1.900       .  S
C1270     Br1281   1.927       .  S
C1271      C1272   1.433       .  A
C1271      C1276   1.420       .  A
C1272      C1273   1.412       .  A
C1272     Br1283   1.943       .  S
C1273      C1274   1.404       .  A
C1273     Br1279   1.934       .  S
C1274      C1275   1.405   1_554  A
C1275      C1276   1.410   1_556  A
C1275     Br1772   1.928       .  S
C1276     Br1280   1.930       .  S
Br1284     C1763   1.933       .  S
C1285      C1286   1.420       .  A
C1285      C1290   1.412       .  A
C1286      C1287   1.430       .  A
C1287      C1288   1.425       .  A
C1287     Br1302   1.915       .  S
C1288      C1289   1.417       .  A
C1288      C1291   1.546       .  S
C1289      C1290   1.414       .  A
C1289     Br1297   1.907       .  S
C1290     Br1301   1.917       .  S
C1291      C1292   1.437       .  A
C1291      C1296   1.436       .  A
C1292      C1293   1.416       .  A
C1293      C1294   1.402       .  A
C1293     Br1299   1.935       .  S
C1294      C1295   1.402   1_554  A
C1295      C1296   1.419   1_556  A
C1295     Br1304   1.931       .  S
C1296     Br1300   1.933       .  S
C1305      C1306   1.407   1_655  A
C1305      C1310   1.409       .  A
C1306      C1307   1.412       .  A
C1306     Br1318   1.925       .  S
C1307      C1308   1.426       .  A
C1307     Br1322   1.945       .  S
C1308      C1309   1.427       .  A
C1308      C1311   1.527       .  S
C1309      C1310   1.416   1_455  A
C1309     Br1317   1.942   1_455  S
C1310     Br1321   1.911       .  S
C1311      C1312   1.420       .  A
C1311      C1316   1.425       .  A
C1312      C1313   1.407       .  A
C1312     Br1323   1.933       .  S
C1313      C1314   1.407       .  A
C1313     Br1319   1.921       .  S
C1314      C1315   1.409       .  A
C1315      C1316   1.416       .  A
C1315     Br1812   1.933   1_554  S
C1316     Br1320   1.908       .  S
Br1324     C1803   1.933       .  S
C1325      C1326   1.415       .  A
C1325      C1330   1.419       .  A
C1326      C1327   1.420       .  A
C1326     Br1338   1.922       .  S
C1327      C1328   1.417       .  A
C1327     Br1342   1.930       .  S
C1328      C1329   1.407       .  A
C1328      C1331   1.522       .  S
C1329      C1330   1.423       .  A
C1329     Br1337   1.940       .  S
C1330     Br1341   1.912       .  S
C1331      C1332   1.417       .  A
C1331      C1336   1.395       .  A
C1332      C1333   1.490       .  A
C1332     Br1343   1.960       .  S
C1333      C1334   1.539       .  A
C1333     Br1339   3.715       .  S
C1334      C1335   1.422       .  A
C1335      C1336   1.397       .  A
C1335     Br1344   1.943       .  S
C1336     Br1340   1.919       .  S
C1345      C1346   1.407       .  A
C1345      C1350   1.413       .  A
C1346      C1347   1.407       .  A
C1346     Br1358   1.913       .  S
C1347      C1348   1.408       .  A
C1347     Br1362   1.906       .  S
C1348      C1349   1.403       .  A
C1348      C1351   1.503       .  S
C1349      C1350   1.408       .  A
C1349     Br1357   1.906       .  S
C1350     Br1361   1.908       .  S
C1351      C1352   1.421       .  A
C1351      C1356   1.422       .  A
C1352      C1353   1.410       .  A
C1352     Br1363   1.934       .  S
C1353      C1354   1.404       .  A
C1353     Br1359   1.925       .  S
C1354      C1355   1.401       .  A
C1354      C1626   1.484   1_554  S
C1355      C1356   1.402       .  A
C1355     Br1852   1.933   1_554  S
C1356     Br1360   1.932       .  S
Br1364     C1843   1.932       .  S
C1365      C1370   1.406   1_545  A
C1366     Br1378   1.913       .  S
C1367      C1368   1.397       .  A
C1368      C1369   1.415   1_545  A
C1368      C1371   1.505       .  S
C1369      C1370   1.409   1_455  A
C1369     Br1377   1.908       .  S
C1370     Br1381   1.922       .  S
C1371      C1372   1.415       .  A
C1371      C1376   1.429       .  A
C1372      C1373   1.406   1_544  A
C1372     Br1383   1.931   1_554  S
C1373      C1374   1.406   1_556  A
C1373     Br1867   1.924       .  S
C1374      C1375   1.399   1_565  A
C1375      C1376   1.400       .  A
C1375     Br1384   1.934       .  S
C1376     Br1380   1.939       .  S
Br1379     C1861   1.924       .  S
C1385      C1386   1.410       .  A
C1385      C1390   1.408       .  A
C1386      C1387   1.414       .  A
C1386     Br1398   1.925       .  S
C1387      C1388   1.424       .  A
C1387     Br1402   1.942       .  S
C1388      C1389   1.419       .  A
C1388      C1391   1.516   1_545  S
C1389      C1390   1.413       .  A
C1391      C1392   1.420       .  A
C1391      C1396   1.423   1_565  A
C1392      C1393   1.401       .  A
C1392     Br1403   1.935       .  S
C1393      C1394   1.404       .  A
C1393     Br1887   1.919   1_554  S
C1394      C1395   1.413       .  A
C1394      C1625   1.506   1_554  S
C1395      C1396   1.418   1_565  A
C1395     Br1404   1.929       .  S
C1396     Br1400   1.924       .  S
Br1399     C1881   1.930       .  S
C1405      C1406   1.411       .  A
C1405      C1410   1.399       .  A
C1406      C1407   1.412       .  A
C1406     Br1418   1.930       .  S
C1407      C1408   1.424       .  A
C1407     Br1422   1.906       .  S
C1408      C1409   1.413       .  A
C1408      C1411   1.532       .  S
C1409      C1410   1.404       .  A
C1409     Br1417   1.892       .  S
C1411      C1412   1.663       .  A
C1411      C1416   1.628       .  A
C1412      C1413   1.608       .  A
C1412     Br1423   1.944       .  S
C1413      C1414   1.609       .  A
C1413     Br1419   1.920       .  S
C1414      C1415   1.612       .  A
C1415      C1416   1.595       .  A
C1415     Br1424   1.925       .  S
C1416     Br1420   1.936       .  S
C1425      C1426   1.413   1_655  A
C1425      C1430   1.411       .  A
C1426      C1427   1.403       .  A
C1426     Br1438   1.919       .  S
C1427      C1428   1.415       .  A
C1427     Br1442   1.929       .  S
C1428      C1429   1.411       .  A
C1428      C1431   1.506       .  S
C1429      C1430   1.413   1_455  A
C1429     Br1437   1.907       .  S
C1430     Br1441   1.922       .  S
C1431      C1432   1.430       .  A
C1431      C1436   1.423       .  A
C1432      C1433   1.400       .  A
C1432     Br1443   1.940       .  S
C1433      C1434   1.401       .  A
C1433     Br1439   1.936       .  S
C1434      C1435   1.401       .  A
C1435      C1436   1.406       .  A
C1435     Br1444   1.927       .  S
C1436     Br1440   1.940       .  S
C1445      C1446   1.412       .  A
C1445      C1450   1.404       .  A
C1446      C1447   1.421       .  A
C1446     Br1458   1.931       .  S
C1447      C1448   1.432       .  A
C1448      C1449   1.423       .  A
C1448      C1451   1.528       .  S
C1449      C1450   1.402       .  A
C1449     Br1457   1.934       .  S
C1450     Br1461   1.920       .  S
C1451      C1452   1.433       .  A
C1451      C1456   1.431       .  A
C1452      C1453   1.417       .  A
C1452     Br1463   1.938       .  S
C1453      C1454   1.408   1_455  A
C1453     Br1459   1.931       .  S
C1454      C1455   1.401       .  A
C1455      C1456   1.407   1_655  A
C1456     Br1460   1.951   1_455  S
C1465      C1466   1.413       .  A
C1465      C1470   1.388       .  A
C1465      C1922   1.486       .  S
C1466      C1467   1.414       .  A
C1466      C1933   1.507       .  S
C1467      C1468   1.421       .  A
C1467      H1472   1.085       .  S
C1468      C1469   1.503       .  A
C1468      C1559   1.582       .  S
C1469      C1470   1.404       .  A
C1469      C1577   1.565       .  S
C1470      H1471   1.086       .  S
O1473      V1481   1.901       .  S
O1474      V1481   1.898       .  S
O1474      C1484   1.263       .  A
O1475      V1481   1.875       .  S
O1476      V1481   1.890       .  S
O1476      C1486   1.263       .  A
O1477      V1482   1.919       .  S
O1478      V1482   1.913       .  S
O1478      C1485   1.270   1_565  A
O1479      V1482   1.904       .  S
O1480      V1482   1.894       .  S
O1480      C1483   1.262   1_565  A
C1483      C1873   1.483       .  S
C1484      C1942   1.479   1_655  S
C1485      C1853   1.503       .  S
C1486      C1893   1.502       .  S
O1487      V1495   1.914       .  S
O1487      C1497   1.267       .  A
O1488      V1495   1.909       .  S
O1488      C1498   1.265       .  A
O1489      V1495   1.907       .  S
O1489      C1499   1.265       .  A
O1490      V1495   1.901       .  S
O1490      C1500   1.265       .  A
O1491      V1496   1.903       .  S
O1491      C1500   1.264       .  A
O1492      V1496   1.893       .  S
O1492      C1499   1.264       .  A
O1493      V1496   1.911       .  S
O1493      C1498   1.266       .  A
O1494      V1496   1.914       .  S
O1494      C1497   1.266       .  A
V1495      V1496   2.083       .  T
C1497      C1793   1.491       .  S
C1498      C1813   1.495       .  S
C1499      C1833   1.489       .  S
C1500      C1913   1.496       .  S
C1501      C1502   1.416       .  A
C1501      C1862   1.488       .  S
C1502      C1802   1.504       .  S
C1503      C1504   1.413       .  A
C1503      H1508   1.085       .  S
C1504      C1505   1.493       .  A
C1504      C1579   1.560       .  S
C1505      C1506   1.399       .  A
C1505      C1564   1.530       .  S
C1506      H1507   1.082   1_565  S
C1509      C1534   1.610       .  S
C1509      C1510   1.559       .  S
C1509      C1515   1.506       .  S
C1509      C1513   1.570       .  S
C1510      H1517   1.086       .  S
C1510      C1511   1.404       .  D
C1511      C1628   1.546       .  S
C1511      C1512   1.591       .  S
C1512      C1516   1.648       .  S
C1512      C1514   1.531       .  S
C1512      H1518   1.110       .  S
C1513      H1519   1.084       .  S
C1513      C1514   1.391       .  D
C1514      C1541   1.532       .  S
C1515      H1520   1.084       .  S
C1515      C1516   1.335       .  D
C1516      C1621   1.587       .  S
C1521      C1620   1.590       .  S
C1521      C1527   1.488       .  S
C1522      H1529   1.086       .  S
C1522      C1523   1.386       .  D
C1523      C1629   1.539       .  S
C1523      C1524   1.535       .  S
C1524      C1526   1.573       .  S
C1524      H1530   1.109       .  S
C1525      H1531   1.085       .  S
C1525      C1526   1.399       .  D
C1526      C1542   1.537       .  S
C1527      H1532   1.084       .  S
C1527      C1528   1.326       .  D
C1528      C1533   1.548       .  S
C1533      C1534   1.512       .  A
C1533      C1538   1.411       .  A
C1534      C1535   1.410       .  A
C1535      H1540   1.084       .  S
C1536      C1537   1.415       .  A
C1536      C1762   1.497       .  S
C1537      C1782   1.494       .  S
C1538      H1539   1.082       .  S
C1541      C1542   1.476       .  A
C1541      C1546   1.397       .  A
C1542      C1543   1.426       .  A
C1543      C1544   1.421       .  A
C1543      H1548   1.078       .  S
C1544      C1545   1.375       .  A
C1544      C1713   1.559       .  S
C1545      C1546   1.384       .  A
C1545      C1733   1.398       .  S
C1546      H1547   1.087       .  S
C1549      C1550   1.375       .  A
C1549      C1554   1.422       .  A
C1549      C1673   1.540       .  S
C1550      C1551   1.381       .  A
C1550      C1693   1.406       .  S
C1551      C1552   1.393       .  A
C1551      H1556   1.087       .  S
C1552      C1553   1.497       .  A
C1552      C1582   1.543       .  S
C1553      C1554   1.422       .  A
C1553      C1557   1.588       .  S
C1554      H1555   1.082       .  S
C1557      C1563   1.473       .  S
C1558      H1565   1.085       .  S
C1558      C1559   1.408       .  D
C1559      C1560   1.591       .  S
C1560      C1562   1.571       .  S
C1560      H1566   1.101       .  S
C1561      H1567   1.085       .  S
C1561      C1562   1.399       .  D
C1562      C1569   1.591       .  S
C1563      H1568   1.077       .  S
C1563      C1564   1.310       .  D
C1569      C1570   1.513       .  A
C1569      C1574   1.413       .  A
C1570      C1571   1.411       .  A
C1570      C1584   1.536       .  S
C1571      C1572   1.397   1_556  A
C1571      H1576   1.082       .  S
C1572      C1573   1.410       .  A
C1573      C1574   1.403   1_554  A
C1574      H1575   1.085       .  S
C1577      C1578   1.565       .  S
C1577      C1583   1.456       .  S
C1577      C1581   1.570       .  S
C1578      H1585   1.086       .  S
C1578      C1579   1.391       .  D
C1579      C1580   1.583       .  S
C1580      C1584   1.637       .  S
C1580      C1582   1.553       .  S
C1580      H1586   1.108       .  S
C1581      H1587   1.084       .  S
C1581      C1582   1.388       .  D
C1583      H1588   1.062       .  S
C1583      C1584   1.309       .  D
O1589      V1597   1.915       .  S
O1589      C1599   1.269       .  A
O1590      V1597   1.930       .  S
O1591      V1597   1.926       .  S
O1592      V1597   1.903       .  S
O1592      C1602   1.265       .  A
O1593      V1598   1.901       .  S
O1594      V1598   1.923       .  S
O1594      C1601   1.268       .  A
O1595      V1598   1.933       .  S
O1595      C1600   1.273       .  A
O1596      V1598   1.942       .  S
C1599      C1773   1.526       .  S
C1600      C1682   1.527   1_565  S
C1601      C1722   1.505       .  S
C1602      C1653   1.491       .  S
O1603      V1611   1.904       .  S
O1603      C1613   1.267       .  A
O1604      V1611   1.895       .  S
O1604      C1614   1.264       .  A
O1605      V1611   1.897       .  S
O1605      C1615   1.264       .  A
O1606      V1611   1.921       .  S
O1606      C1616   1.266       .  A
O1607      V1612   1.912       .  S
O1607      C1616   1.268       .  A
O1608      V1612   1.894       .  S
O1608      C1615   1.264       .  A
O1609      V1612   1.905       .  S
O1609      C1614   1.265       .  A
O1610      V1612   1.908       .  S
O1610      C1613   1.265       .  A
V1611      V1612   2.081       .  T
C1613      C1753   1.496       .  S
C1614      C1702   1.478       .  S
C1615      C1742   1.479       .  S
C1616      C1633   1.497       .  S
C1617      C1618   1.369       .  A
C1617      C1622   1.446       .  A
C1617      C1822   1.567       .  S
C1618      C1619   1.366       .  A
C1618      C1902   1.391       .  S
C1619      C1620   1.388       .  A
C1619      H1624   1.087       .  S
C1620      C1621   1.517       .  A
C1621      C1622   1.445       .  A
C1622      H1623   1.079       .  S
C1625      C1626   1.413       .  A
C1625      C1630   1.399       .  A
C1626      C1627   1.395       .  A
C1627      C1628   1.413       .  A
C1627      H1632   1.087       .  S
C1628      C1629   1.487       .  A
C1629      C1630   1.418       .  A
C1630      H1631   1.085       .  S
C1633      C1634   1.398       .  A
C1633      C1638   1.408       .  A
C1634      C1635   1.400       .  A
C1634     Br1646   1.906       .  S
C1635      C1636   1.422       .  A
C1635     Br1650   1.913       .  S
C1636      C1637   1.415       .  A
C1636      C1639   1.517       .  S
C1637      C1638   1.405       .  A
C1637     Br1645   1.924       .  S
C1638     Br1649   1.893       .  S
C1639      C1640   1.431       .  A
C1639      C1644   1.439       .  A
C1640      C1641   1.408       .  A
C1640     Br1651   1.942       .  S
C1641      C1642   1.402       .  A
C1642      C1643   1.397       .  A
C1643      C1644   1.407       .  A
C1643     Br1652   1.936       .  S
C1644     Br1648   1.943       .  S
C1653      C1654   1.411       .  A
C1654      C1655   1.406       .  A
C1654     Br1666   1.936       .  S
C1655      C1656   1.413       .  A
C1655     Br1670   1.900       .  S
C1656      C1657   1.406       .  A
C1656      C1659   1.510       .  S
C1658     Br1669   1.919       .  S
C1659      C1660   1.420       .  A
C1659      C1664   1.425       .  A
C1660      C1661   1.410       .  A
C1660     Br1671   1.930       .  S
C1661      C1662   1.406       .  A
C1661     Br1667   1.928       .  S
C1662      C1663   1.404       .  A
C1663      C1664   1.409       .  A
C1664     Br1668   1.937       .  S
C1673      C1674   1.412       .  A
C1673      C1678   1.506       .  A
C1674      C1675   1.390       .  A
C1674     Br1686   1.940       .  S
C1675      C1676   1.396       .  A
C1676      C1677   1.448       .  A
C1676      C1679   1.532       .  S
C1677      C1678   1.505       .  A
C1677     Br1685   1.961       .  S
C1678     Br1689   3.720       .  S
C1679      C1680   1.421       .  A
C1679      C1684   1.409   1_565  A
C1680      C1681   1.425       .  A
C1680     Br1691   1.930       .  S
C1681      C1682   1.418   1_565  A
C1681     Br1687   1.928       .  S
C1682      C1683   1.412       .  A
C1683      C1684   1.417       .  A
C1683     Br1692   1.884       .  S
C1684     Br1688   1.933       .  S
C1693      C1694   1.615       .  A
C1693      C1698   1.612       .  A
C1694      C1695   1.616       .  A
C1694     Br1706   1.917       .  S
C1695      C1696   1.657       .  A
C1695     Br1710   1.937       .  S
C1696      C1697   1.612       .  A
C1696      C1699   1.504       .  S
C1697      C1698   1.589       .  A
C1697     Br1705   1.930       .  S
C1698     Br1709   1.921       .  S
C1699      C1700   1.419       .  A
C1699      C1704   1.421       .  A
C1700      C1701   1.389       .  A
C1700     Br1711   1.930       .  S
C1701      C1702   1.386       .  A
C1701     Br1707   1.892       .  S
C1702      C1703   1.408       .  A
C1703      C1704   1.417       .  A
C1703     Br1712   1.928       .  S
C1704     Br1708   1.926       .  S
C1713      C1714   1.525       .  A
C1713      C1718   1.416       .  A
C1714      C1715   1.501       .  A
C1714     Br1726   3.709       .  S
C1715      C1716   1.435       .  A
C1715     Br1730   1.968       .  S
C1716      C1717   1.392       .  A
C1716      C1719   1.527       .  S
C1717      C1718   1.387       .  A
C1718     Br1729   1.941       .  S
C1719      C1720   1.418       .  A
C1719      C1724   1.422       .  A
C1720      C1721   1.411       .  A
C1720     Br1731   1.947       .  S
C1721      C1722   1.411       .  A
C1721     Br1727   1.916       .  S
C1722      C1723   1.411       .  A
C1723      C1724   1.419       .  A
C1723     Br1732   1.914       .  S
C1724     Br1728   1.935       .  S
C1733      C1734   1.610       .  A
C1733      C1738   1.633       .  A
C1734      C1735   1.610       .  A
C1734     Br1746   1.916       .  S
C1735      C1736   1.660       .  A
C1735     Br1750   1.942       .  S
C1736      C1737   1.611       .  A
C1736      C1739   1.512       .  S
C1737      C1738   1.597       .  A
C1737     Br1745   1.929       .  S
C1738     Br1749   1.922       .  S
C1739      C1740   1.422       .  A
C1739      C1744   1.399       .  A
C1740      C1741   1.412       .  A
C1740     Br1751   1.910       .  S
C1741      C1742   1.407       .  A
C1741     Br1747   1.930       .  S
C1742      C1743   1.400       .  A
C1743      C1744   1.398       .  A
C1743     Br1752   1.895       .  S
C1744     Br1748   1.901       .  S
C1753      C1754   1.411       .  A
C1753      C1758   1.411       .  A
C1754      C1755   1.412       .  A
C1754     Br1766   1.937       .  S
C1755      C1756   1.420       .  A
C1755     Br1770   1.910       .  S
C1756      C1757   1.418       .  A
C1756      C1759   1.525       .  S
C1757      C1758   1.412       .  A
C1757     Br1765   1.912       .  S
C1758     Br1769   1.933       .  S
C1759      C1760   1.433       .  A
C1759      C1764   1.429       .  A
C1760      C1761   1.416       .  A
C1760     Br1771   1.943       .  S
C1761      C1762   1.405       .  A
C1761     Br1767   1.931       .  S
C1762      C1763   1.404       .  A
C1763      C1764   1.411       .  A
C1764     Br1768   1.936       .  S
C1773      C1774   1.424       .  A
C1773      C1778   1.416       .  A
C1774      C1775   1.427       .  A
C1775      C1776   1.413       .  A
C1775     Br1790   1.916       .  S
C1776      C1777   1.410       .  A
C1776      C1779   1.529       .  S
C1777      C1778   1.410       .  A
C1777     Br1785   1.904       .  S
C1778     Br1789   1.920       .  S
C1779      C1780   1.429       .  A
C1779      C1784   1.431       .  A
C1780      C1781   1.413       .  A
C1781      C1782   1.403       .  A
C1781     Br1787   1.932       .  S
C1782      C1783   1.402       .  A
C1783      C1784   1.413       .  A
C1783     Br1792   1.930       .  S
C1784     Br1788   1.935       .  S
C1793      C1794   1.406   1_655  A
C1793      C1798   1.405       .  A
C1794      C1795   1.411       .  A
C1794     Br1806   1.926       .  S
C1795      C1796   1.431       .  A
C1795     Br1810   1.950       .  S
C1796      C1797   1.433       .  A
C1796      C1799   1.529       .  S
C1797      C1798   1.416   1_455  A
C1797     Br1805   1.936   1_455  S
C1798     Br1809   1.929       .  S
C1799      C1800   1.422       .  A
C1799      C1804   1.431       .  A
C1800      C1801   1.404       .  A
C1800     Br1811   1.931       .  S
C1801      C1802   1.404       .  A
C1801     Br1807   1.922       .  S
C1802      C1803   1.410       .  A
C1803      C1804   1.416       .  A
C1804     Br1808   1.921       .  S
C1813      C1814   1.408       .  A
C1813      C1818   1.416       .  A
C1814      C1815   1.411       .  A
C1814     Br1826   1.925       .  S
C1815      C1816   1.417       .  A
C1815     Br1830   1.929       .  S
C1816      C1817   1.410       .  A
C1816      C1819   1.522       .  S
C1817      C1818   1.421       .  A
C1817     Br1825   1.934       .  S
C1818     Br1829   1.926       .  S
C1819      C1820   1.423       .  A
C1819      C1824   1.388       .  A
C1820      C1821   1.500       .  A
C1820     Br1831   1.961       .  S
C1821      C1822   1.535       .  A
C1821     Br1827   3.718       .  S
C1822      C1823   1.411       .  A
C1823      C1824   1.390       .  A
C1823     Br1832   1.933       .  S
C1824     Br1828   1.911       .  S
C1833      C1834   1.406       .  A
C1833      C1838   1.412       .  A
C1834      C1835   1.402       .  A
C1834     Br1846   1.929       .  S
C1835      C1836   1.413       .  A
C1835     Br1850   1.906       .  S
C1836      C1837   1.405       .  A
C1836      C1839   1.492       .  S
C1837      C1838   1.402       .  A
C1837     Br1845   1.930       .  S
C1838     Br1849   1.891       .  S
C1839      C1840   1.414       .  A
C1839      C1844   1.414       .  A
C1840      C1841   1.408       .  A
C1840     Br1851   1.933       .  S
C1841      C1842   1.409       .  A
C1841     Br1847   1.926       .  S
C1842      C1843   1.410       .  A
C1843      C1844   1.405       .  A
C1844     Br1848   1.929       .  S
C1853      C1858   1.411   1_545  A
C1854     Br1866   1.927       .  S
C1855      C1856   1.401       .  A
C1856      C1857   1.415   1_545  A
C1856      C1859   1.511       .  S
C1857      C1858   1.411   1_455  A
C1857     Br1865   1.912       .  S
C1858     Br1869   1.930       .  S
C1859      C1860   1.417       .  A
C1859      C1864   1.428       .  A
C1860      C1861   1.408   1_545  A
C1860     Br1871   1.931       .  S
C1861      C1862   1.404       .  A
C1862      C1863   1.404   1_565  A
C1863      C1864   1.405       .  A
C1863     Br1872   1.931       .  S
C1864     Br1868   1.937       .  S
C1873      C1874   1.403   1_545  A
C1873      C1878   1.408       .  A
C1874      C1875   1.405       .  A
C1874     Br1886   1.937       .  S
C1875      C1876   1.424   1_565  A
C1875     Br1890   1.927       .  S
C1876      C1877   1.423       .  A
C1876      C1879   1.514       .  S
C1877      C1878   1.418       .  A
C1879      C1880   1.423   1_545  A
C1879      C1884   1.418       .  A
C1880      C1881   1.414       .  A
C1880     Br1891   1.933       .  S
C1881      C1882   1.409       .  A
C1882      C1883   1.406       .  A
C1883      C1884   1.408   1_565  A
C1883     Br1892   1.929   1_565  S
C1884     Br1888   1.921       .  S
C1893      C1894   1.405       .  A
C1893      C1898   1.408       .  A
C1894      C1895   1.402       .  A
C1894     Br1906   1.909       .  S
C1895      C1896   1.425       .  A
C1895     Br1910   1.928       .  S
C1896      C1897   1.413       .  A
C1896      C1899   1.518       .  S
C1897      C1898   1.412       .  A
C1897     Br1905   1.921       .  S
C1899      C1900   1.667       .  A
C1899      C1904   1.617       .  A
C1900      C1901   1.615       .  A
C1900     Br1911   1.942       .  S
C1901      C1902   1.615       .  A
C1901     Br1907   1.917       .  S
C1902      C1903   1.607       .  A
C1903      C1904   1.583       .  A
C1903     Br1912   1.925       .  S
C1904     Br1908   1.943       .  S
C1913      C1914   1.414   1_655  A
C1913      C1918   1.415       .  A
C1914      C1915   1.408       .  A
C1914     Br1926   1.928       .  S
C1915      C1916   1.417       .  A
C1915     Br1930   1.925       .  S
C1916      C1917   1.409       .  A
C1916      C1919   1.510       .  S
C1917      C1918   1.411   1_455  A
C1917     Br1925   1.907       .  S
C1918     Br1929   1.929       .  S
C1919      C1920   1.430       .  A
C1919      C1924   1.420       .  A
C1920      C1921   1.405       .  A
C1920     Br1931   1.941       .  S
C1921      C1922   1.402       .  A
C1921     Br1927   1.934       .  S
C1922      C1923   1.405       .  A
C1923      C1924   1.408       .  A
C1923     Br1932   1.924       .  S
C1924     Br1928   1.939       .  S
C1933      C1934   1.410       .  A
C1933      C1938   1.405       .  A
C1934      C1935   1.417       .  A
C1934     Br1946   1.931       .  S
C1935      C1936   1.433       .  A
C1936      C1937   1.421       .  A
C1936      C1939   1.526       .  S
C1937      C1938   1.402       .  A
C1937     Br1945   1.935       .  S
C1938     Br1949   1.919       .  S
C1939      C1940   1.433       .  A
C1939      C1944   1.429       .  A
C1940      C1941   1.421       .  A
C1940     Br1951   1.932       .  S
C1941      C1942   1.409       .  A
C1941     Br1947   1.931       .  S
C1942      C1943   1.398   1_455  A
C1943      C1944   1.400   1_655  A
C1944     Br1948   1.948       .  S
