geometry optimzed in LAMMPS
_audit_creation_date              2020-11-30 
_audit_creation_method            'lammps2cif' 
_symmetry_space_group_name_H-M    'P1' 
_symmetry_Int_Tables_number       1 
_symmetry_cell_setting            triclinic 
loop_ 
_symmetry_equiv_pos_as_xyz 
  x,y,z 
_cell_length_a                    43.51444318 
_cell_length_b                    43.533901247499266 
_cell_length_c                    43.48878853477536 
_cell_angle_alpha                 89.81382390633974 
_cell_angle_beta                  89.85986663192743 
_cell_angle_gamma                 89.99893651032158 
loop_ 
_atom_site_label 
_atom_site_type_symbol 
_atom_site_fract_x 
_atom_site_fract_y 
_atom_site_fract_z 
_atom_site_charge 
O1          O  0.08010622  0.12921051  0.39720012    -0.74300
O2          O  0.16776526  0.12704485  0.39600261    -0.74400
O3          O  0.12505464  0.17219557  0.39891977    -0.74400
O4          O  0.12294268  0.08430889  0.39358013    -0.74500
O5          O  0.12300534  0.08734349  0.34255351    -0.74400
O6          O  0.12349231  0.17492374  0.34771812    -0.74400
O7          O  0.16752890  0.13072228  0.34493156    -0.74300
O8          O  0.07920729  0.13155016  0.34614525    -0.74400
Ni9        Ni  0.12397391  0.12808887  0.39822922     1.25400
Ni10       Ni  0.12330993  0.13126965  0.34350919     1.25400
C11         C  0.06500484  0.13070549  0.37204605     0.87900
C12         C  0.18223275  0.12842451  0.37038273     0.87800
C13         C  0.12434506  0.18799437  0.37400768     0.87800
C14         C  0.12288513  0.07120263  0.36717757     0.88000
O15         O  0.08361611  0.87858444  0.33954559    -0.74300
O16         O  0.17174658  0.87848063  0.33992000    -0.74400
O17         O  0.12757976  0.83444147  0.34008743    -0.74400
O18         O  0.12747726  0.92286057  0.33958302    -0.74500
O19         O  0.12611782  0.92231855  0.39064409    -0.74400
O20         O  0.12875024  0.83486145  0.39137814    -0.74400
O21         O  0.17128001  0.87986337  0.39115630    -0.74300
O22         O  0.08340169  0.87753948  0.39064708    -0.74400
Ni23       Ni  0.12764905  0.87859697  0.33789692     1.25400
Ni24       Ni  0.12736289  0.87864842  0.39271479     1.25400
C25         C  0.06883978  0.87806105  0.36505402     0.87900
C26         C  0.18602886  0.87907450  0.36565758     0.87800
C27         C  0.12841759  0.82021486  0.36594271     0.87800
C28         C  0.12639651  0.93725379  0.36529247     0.88000
O29         O  0.87107214  0.17490566  0.34902810    -0.74300
O30         O  0.87249981  0.08691275  0.34754843    -0.74400
O31         O  0.82792583  0.12989379  0.34916862    -0.74400
O32         O  0.91570705  0.13170152  0.34725136    -0.74500
O33         O  0.91692666  0.13035412  0.39832644    -0.74400
O34         O  0.82880377  0.12960841  0.40038563    -0.74400
O35         O  0.87309144  0.08616794  0.39864128    -0.74300
O36         O  0.87271474  0.17403525  0.40020661    -0.74400
Ni37       Ni  0.87176086  0.13094541  0.34644773     1.25400
Ni38       Ni  0.87290613  0.13004228  0.40122102     1.25400
C39         C  0.87209462  0.18902441  0.37483090     0.87900
C40         C  0.87284371  0.07188594  0.37294772     0.87800
C41         C  0.81385387  0.12887076  0.37503167     0.87800
C42         C  0.93097370  0.13107901  0.37236477     0.88000
O43         O  0.92011165  0.87885349  0.34414217    -0.74300
O44         O  0.83223330  0.87924994  0.34428086    -0.74400
O45         O  0.87608807  0.92309935  0.34332092    -0.74400
O46         O  0.87590394  0.83494072  0.34541684    -0.74500
O47         O  0.87566358  0.83597871  0.39668374    -0.74400
O48         O  0.87595548  0.92369409  0.39443679    -0.74400
O49         O  0.83216830  0.87974416  0.39558690    -0.74300
O50         O  0.92013582  0.87974859  0.39524325    -0.74400
Ni51       Ni  0.87614175  0.87899004  0.34245270     1.25400
Ni52       Ni  0.87606932  0.87986454  0.39729180     1.25400
C53         C  0.93479193  0.87914526  0.36965003     0.87900
C54         C  0.81777920  0.87950487  0.36994474     0.87800
C55         C  0.87555536  0.93803992  0.36866059     0.87800
C56         C  0.87513755  0.82099335  0.37143319     0.88000
O57         O  0.10147185  0.42335554  0.37466593    -0.74300
O58         O  0.09930829  0.33559315  0.37300519    -0.74400
O59         O  0.09974741  0.37844861  0.41780584    -0.74400
O60         O  0.10100285  0.38030644  0.32989711    -0.74500
O61         O  0.15228879  0.37985814  0.33045002    -0.74400
O62         O  0.15093680  0.37704422  0.41835250    -0.74400
O63         O  0.15056269  0.33444473  0.37361571    -0.74300
O64         O  0.15262152  0.42236756  0.37558970    -0.74400
Ni65       Ni  0.09856407  0.37950365  0.37381941     1.25400
Ni66       Ni  0.15343866  0.37838134  0.37449090     1.25400
C67         C  0.12731771  0.43742238  0.37525319     0.87900
C68         C  0.12459551  0.32056854  0.37321517     0.87800
C69         C  0.12514569  0.37703025  0.43257979     0.87800
C70         C  0.12683359  0.38053600  0.31574066     0.88000
O71         O  0.14945962  0.37517852  0.66755278    -0.74300
O72         O  0.14851019  0.37537549  0.57965087    -0.74400
O73         O  0.14840669  0.41910580  0.62357420    -0.74400
O74         O  0.14962946  0.33127697  0.62328504    -0.74500
O75         O  0.09833956  0.33059391  0.62428515    -0.74400
O76         O  0.09723503  0.41844837  0.62456963    -0.74400
O77         O  0.09728871  0.37491653  0.58041327    -0.74300
O78         O  0.09819328  0.37406842  0.66827167    -0.74400
Ni79       Ni  0.15083630  0.37523421  0.62352294     1.25400
Ni80       Ni  0.09593718  0.37447539  0.62439367     1.25400
C81         C  0.12397166  0.37476707  0.68235516     0.87900
C82         C  0.12271741  0.37540938  0.56553359     0.87800
C83         C  0.12263339  0.43332308  0.62416644     0.87800
C84         C  0.12417130  0.31653051  0.62361218     0.88000
O85         O  0.10573702  0.67307635  0.37431025    -0.74300
O86         O  0.10606312  0.58522813  0.37754263    -0.74400
O87         O  0.10512068  0.63034378  0.42015292    -0.74400
O88         O  0.10679252  0.62760967  0.33215781    -0.74500
O89         O  0.15798972  0.62836162  0.33297491    -0.74400
O90         O  0.15624537  0.63000626  0.42089263    -0.74400
O91         O  0.15723324  0.58523117  0.37795600    -0.74300
O92         O  0.15692863  0.67324040  0.37584460    -0.74400
Ni93       Ni  0.10410654  0.62909555  0.37606183     1.25400
Ni94       Ni  0.15891684  0.62924508  0.37697746     1.25400
C95         C  0.13130277  0.68767317  0.37439916     0.87900
C96         C  0.13164773  0.57066811  0.37803360     0.87800
C97         C  0.13046425  0.63029507  0.43514288     0.87800
C98         C  0.13267378  0.62761410  0.31804350     0.88000
O99         O  0.10028233  0.66891764  0.62800552    -0.74300
O100        O  0.10013341  0.58114018  0.62631655    -0.74400
O101        O  0.10013327  0.62398651  0.67131306    -0.74400
O102        O  0.10049772  0.62600933  0.58331404    -0.74500
O103        O  0.15164057  0.62677555  0.58348573    -0.74400
O104        O  0.15138182  0.62244776  0.67142194    -0.74400
O105        O  0.15131345  0.58087343  0.62541363    -0.74300
O106        O  0.15157946  0.66880511  0.62940353    -0.74400
Ni107      Ni  0.09844585  0.62502874  0.62728431     1.25400
Ni108      Ni  0.15332302  0.62476763  0.62746104     1.25400
C109        C  0.12593161  0.68323584  0.62883165     0.87900
C110        C  0.12563594  0.56648488  0.62514062     0.87800
C111        C  0.12568548  0.62260396  0.68583253     0.87800
C112        C  0.12613382  0.62659897  0.56879449     0.88000
O113        O  0.62385584  0.09703022  0.42294115    -0.74300
O114        O  0.62364185  0.09428856  0.33516961    -0.74400
O115        O  0.66761275  0.09664051  0.37862174    -0.74400
O116        O  0.57960055  0.09464944  0.37921237    -0.74500
O117        O  0.57844684  0.14586675  0.37829603    -0.74400
O118        O  0.66631307  0.14791076  0.37750278    -0.74400
O119        O  0.62202806  0.14547832  0.33367481    -0.74300
O120        O  0.62273706  0.14817458  0.42170504    -0.74400
Ni121      Ni  0.62367543  0.09383453  0.37907831     1.25400
Ni122      Ni  0.62232072  0.14869441  0.37767626     1.25400
C123        C  0.62380465  0.12291875  0.43686329     0.87900
C124        C  0.62300260  0.11947102  0.31994157     0.87800
C125        C  0.68134882  0.12263896  0.37810203     0.87800
C126        C  0.56454837  0.11994486  0.37903893     0.88000
O127        O  0.62520840  0.09939745  0.67263260    -0.74300
O128        O  0.62700538  0.10031597  0.58458791    -0.74400
O129        O  0.67019682  0.10053061  0.62945282    -0.74400
O130        O  0.58232187  0.09903722  0.62782724    -0.74500
O131        O  0.58149922  0.15007856  0.62909105    -0.74400
O132        O  0.66944384  0.15177324  0.62819555    -0.74400
O133        O  0.62508766  0.15143191  0.58486152    -0.74300
O134        O  0.62570384  0.15059876  0.67278279    -0.74400
Ni135      Ni  0.62626695  0.09798872  0.62861514     1.25400
Ni136      Ni  0.62542910  0.15278894  0.62878831     1.25400
C137        C  0.62496310  0.12491035  0.68722108     0.87900
C138        C  0.62579317  0.12602403  0.57016034     0.87800
C139        C  0.68426136  0.12636855  0.62881260     0.87800
C140        C  0.56727415  0.12429467  0.62825231     0.88000
O141        O  0.33018460  0.14719595  0.37357999    -0.74300
O142        O  0.41801475  0.14469263  0.37574822    -0.74400
O143        O  0.37511747  0.14398307  0.33091614    -0.74400
O144        O  0.37332949  0.14795528  0.41858933    -0.74500
O145        O  0.37316929  0.09683638  0.42103328    -0.74400
O146        O  0.37180805  0.09288916  0.33297918    -0.74400
O147        O  0.41655791  0.09348406  0.37636432    -0.74300
O148        O  0.32853172  0.09609871  0.37776416    -0.74400
Ni149      Ni  0.37418345  0.14775733  0.37463140     1.25400
Ni150      Ni  0.37246463  0.09296454  0.37713090     1.25400
C151        C  0.31495124  0.12209479  0.37542867     0.87900
C152        C  0.43176898  0.11869216  0.37616138     0.87800
C153        C  0.37343468  0.11792175  0.31746821     0.87800
C154        C  0.37353176  0.12307582  0.43435083     0.88000
O155        O  0.33083176  0.10127113  0.62644766    -0.74300
O156        O  0.41881994  0.10123482  0.62659530    -0.74400
O157        O  0.37451954  0.10165186  0.67037917    -0.74400
O158        O  0.37484242  0.10056073  0.58273170    -0.74500
O159        O  0.37383700  0.15170106  0.58163340    -0.74400
O160        O  0.37615783  0.15291526  0.66968545    -0.74400
O161        O  0.41876349  0.15226565  0.62464024    -0.74300
O162        O  0.33094813  0.15251506  0.62707556    -0.74400
Ni163      Ni  0.37477958  0.09936505  0.62656291     1.25400
Ni164      Ni  0.37491634  0.15419709  0.62569320     1.25400
C165        C  0.31643309  0.12692284  0.62711092     0.87900
C166        C  0.43343658  0.12680813  0.62560518     0.87800
C167        C  0.37555263  0.12740385  0.68440404     0.87800
C168        C  0.37390978  0.12581184  0.56764246     0.88000
O169        O  0.84936585  0.67337596  0.37762787    -0.74300
O170        O  0.85223792  0.58538784  0.38035942    -0.74400
O171        O  0.85153319  0.63073940  0.42279574    -0.74400
O172        O  0.84991658  0.62822508  0.33495810    -0.74500
O173        O  0.90121229  0.62845556  0.33386701    -0.74400
O174        O  0.90271512  0.63256487  0.42167352    -0.74400
O175        O  0.90344725  0.58673411  0.37966803    -0.74300
O176        O  0.90059306  0.67450596  0.37544573    -0.74400
Ni177      Ni  0.84892665  0.62935344  0.37898105     1.25400
Ni178      Ni  0.90381298  0.63067186  0.37768042     1.25400
C179        C  0.87462236  0.68836595  0.37568191     0.87900
C180        C  0.87825798  0.57154263  0.38043317     0.87800
C181        C  0.87735989  0.63225382  0.43672747     0.87800
C182        C  0.87530515  0.62772705  0.32001459     0.88000
O183        O  0.85240032  0.67097226  0.62859557    -0.74300
O184        O  0.85392590  0.58335617  0.62637860    -0.74400
O185        O  0.85267921  0.62608072  0.67172254    -0.74400
O186        O  0.85390132  0.62851728  0.58379511    -0.74500
O187        O  0.90509643  0.62979124  0.58452341    -0.74400
O188        O  0.90392680  0.62570813  0.67243371    -0.74400
O189        O  0.90502302  0.58383631  0.62638551    -0.74300
O190        O  0.90362586  0.67188123  0.63035638    -0.74400
Ni191      Ni  0.85142947  0.62716938  0.62767463     1.25400
Ni192      Ni  0.90627148  0.62784809  0.62848497     1.25400
C193        C  0.87769817  0.68588150  0.62971213     0.87900
C194        C  0.87961026  0.56899365  0.62539214     0.87800
C195        C  0.87807814  0.62561116  0.68656670     0.87800
C196        C  0.87973314  0.62953081  0.56965085     0.88000
O197        O  0.84958682  0.33710176  0.37092556    -0.74300
O198        O  0.85291868  0.42499420  0.37356268    -0.74400
O199        O  0.85082328  0.38242695  0.32819526    -0.74400
O200        O  0.85154413  0.37966066  0.41606757    -0.74500
O201        O  0.90277931  0.37970786  0.41551995    -0.74400
O202        O  0.90193695  0.37847147  0.32754421    -0.74400
O203        O  0.90403928  0.42318039  0.37109902    -0.74300
O204        O  0.90083203  0.33525740  0.37255464    -0.74400
Ni205      Ni  0.84938173  0.38112638  0.37215977     1.25400
Ni206      Ni  0.90423275  0.37910925  0.37158098     1.25400
C207        C  0.87469885  0.32178081  0.37189736     0.87900
C208        C  0.87903207  0.43861877  0.37290570     0.87800
C209        C  0.87621880  0.38051467  0.31339593     0.87800
C210        C  0.87728580  0.37959033  0.43028707     0.88000
O211        O  0.90162524  0.37684807  0.66547014    -0.74300
O212        O  0.90164515  0.37671140  0.57753495    -0.74400
O213        O  0.90141718  0.42078500  0.62115462    -0.74400
O214        O  0.90185332  0.33283442  0.62168201    -0.74500
O215        O  0.85059795  0.33275058  0.62379348    -0.74400
O216        O  0.85034127  0.42059452  0.61974229    -0.74400
O217        O  0.85045399  0.37488474  0.57773286    -0.74300
O218        O  0.85035528  0.37864459  0.66546053    -0.74400
Ni219      Ni  0.90347996  0.37680390  0.62145563     1.25400
Ni220      Ni  0.84861007  0.37668567  0.62164726     1.25400
C221        C  0.87595051  0.37815453  0.67986184     0.87900
C222        C  0.87603816  0.37553142  0.56313287     0.87800
C223        C  0.87580551  0.43532923  0.62027463     0.87800
C224        C  0.87627467  0.31836867  0.62329004     0.88000
O225        O  0.33357453  0.90270883  0.37237057    -0.74300
O226        O  0.42132721  0.90084787  0.37539688    -0.74400
O227        O  0.37934706  0.90082524  0.32980872    -0.74400
O228        O  0.37580613  0.90260527  0.41775387    -0.74500
O229        O  0.37456100  0.85151225  0.41874393    -0.74400
O230        O  0.37814453  0.84961222  0.33090900    -0.74400
O231        O  0.42037680  0.84972254  0.37652609    -0.74300
O232        O  0.33243762  0.85145218  0.37288450    -0.74400
Ni233      Ni  0.37753398  0.90356450  0.37377678     1.25400
Ni234      Ni  0.37634513  0.84874570  0.37484427     1.25400
C235        C  0.31859155  0.87740182  0.37212021     0.87900
C236        C  0.43540716  0.87505318  0.37649427     0.87800
C237        C  0.37951393  0.87492152  0.31589410     0.87800
C238        C  0.37450520  0.87730305  0.43283676     0.88000
O239        O  0.32866280  0.85566837  0.62654663    -0.74300
O240        O  0.41653735  0.85682788  0.62300471    -0.74400
O241        O  0.37420140  0.85575923  0.66861874    -0.74400
O242        O  0.37126108  0.85653067  0.58088671    -0.74500
O243        O  0.37188921  0.90765055  0.58090137    -0.74400
O244        O  0.37173276  0.90695875  0.66899235    -0.74400
O245        O  0.41588622  0.90787831  0.62455159    -0.74300
O246        O  0.32788447  0.90691730  0.62493094    -0.74400
Ni247      Ni  0.37265449  0.85438280  0.62476298     1.25400
Ni248      Ni  0.37183411  0.90919801  0.62490169     1.25400
C249        C  0.31385774  0.88109874  0.62613460     0.87900
C250        C  0.43083390  0.88257157  0.62298692     0.87800
C251        C  0.37302447  0.88118005  0.68324722     0.87800
C252        C  0.37172941  0.88214541  0.56630432     0.88000
O253        O  0.62099984  0.85593412  0.66623242    -0.74300
O254        O  0.62591215  0.85496893  0.57850680    -0.74400
O255        O  0.66729777  0.85578304  0.62480525    -0.74400
O256        O  0.57962467  0.85516815  0.62012580    -0.74500
O257        O  0.57904458  0.90622712  0.62063660    -0.74400
O258        O  0.66707377  0.90698950  0.62226032    -0.74400
O259        O  0.62409008  0.90610639  0.57748623    -0.74300
O260        O  0.62230531  0.90715912  0.66562716    -0.74400
Ni261      Ni  0.62346489  0.85366629  0.62242039     1.25400
Ni262      Ni  0.62308409  0.90848159  0.62148414     1.25400
C263        C  0.62132713  0.88165170  0.68040361     0.87900
C264        C  0.62576185  0.88030822  0.56347043     0.87800
C265        C  0.68161309  0.88146054  0.62396903     0.87800
C266        C  0.56469149  0.88049902  0.62001185     0.88000
O267        O  0.62700366  0.85138268  0.41733745    -0.74300
O268        O  0.62888152  0.84633171  0.32950738    -0.74400
O269        O  0.67159167  0.84985865  0.37416981    -0.74400
O270        O  0.58381559  0.84772191  0.37294246    -0.74500
O271        O  0.58256460  0.89883328  0.37094285    -0.74400
O272        O  0.67041316  0.90093018  0.36992035    -0.74400
O273        O  0.62620107  0.89746845  0.32657619    -0.74300
O274        O  0.62655860  0.90249574  0.41432008    -0.74400
Ni275      Ni  0.62782736  0.84699357  0.37356991     1.25400
Ni276      Ni  0.62640401  0.90176070  0.37031209     1.25400
C277        C  0.62654472  0.87776145  0.43033025     0.87900
C278        C  0.62790635  0.87114978  0.31365134     0.87800
C279        C  0.68543804  0.87571272  0.37213638     0.87800
C280        C  0.56863947  0.87292354  0.37221162     0.88000
O281        O  0.12333589  0.83173623  0.65262433    -0.74300
O282        O  0.12228802  0.91941653  0.64939645    -0.74400
O283        O  0.07893666  0.87517947  0.65087811    -0.74400
O284        O  0.16676355  0.87623023  0.65112083    -0.74500
O285        O  0.16689454  0.87511743  0.59988078    -0.74400
O286        O  0.07895041  0.87351813  0.59976133    -0.74400
O287        O  0.12223371  0.91810132  0.59829675    -0.74300
O288        O  0.12368687  0.83003212  0.60153504    -0.74400
Ni289      Ni  0.12280784  0.87565274  0.65279454     1.25400
Ni290      Ni  0.12294001  0.87404747  0.59802504     1.25400
C291        C  0.12384029  0.81624857  0.62767042     0.87900
C292        C  0.12217395  0.93339015  0.62341594     0.87800
C293        C  0.06435249  0.87466729  0.62535796     0.87800
C294        C  0.18130770  0.87647909  0.62548839     0.88000
O295        O  0.08120859  0.12522903  0.65090781    -0.74300
O296        O  0.16909510  0.12632836  0.65164586    -0.74400
O297        O  0.12446623  0.16960373  0.65122791    -0.74400
O298        O  0.12546972  0.08181263  0.65111360    -0.74500
O299        O  0.12529246  0.08171968  0.59999605    -0.74400
O300        O  0.12606558  0.16961033  0.59996245    -0.74400
O301        O  0.16965153  0.12517056  0.60036216    -0.74300
O302        O  0.08175337  0.12585340  0.59967232    -0.74400
Ni303      Ni  0.12508742  0.12572785  0.65304916     1.25400
Ni304      Ni  0.12573067  0.12563915  0.59816568     1.25400
C305        C  0.06696645  0.12523964  0.62517272     0.87900
C306        C  0.18382249  0.12561663  0.62612841     0.87800
C307        C  0.12494968  0.18406816  0.62555715     0.87800
C308        C  0.12516597  0.06713629  0.62563209     0.88000
O309        O  0.83126646  0.12687698  0.65084515    -0.74300
O310        O  0.91896325  0.12764971  0.65139020    -0.74400
O311        O  0.87478375  0.17137706  0.65034641    -0.74400
O312        O  0.87560794  0.08330112  0.65152477    -0.74500
O313        O  0.87484706  0.08291708  0.60030349    -0.74400
O314        O  0.87657007  0.17078035  0.59912434    -0.74400
O315        O  0.91964954  0.12602582  0.60021401    -0.74300
O316        O  0.83152810  0.12780159  0.59956868    -0.74400
Ni317      Ni  0.87511283  0.12733137  0.65283730     1.25400
Ni318      Ni  0.87563360  0.12685078  0.59795888     1.25400
C319        C  0.81691210  0.12752097  0.62520436     0.87900
C320        C  0.93385237  0.12684686  0.62600220     0.87800
C321        C  0.87606076  0.18559429  0.62450432     0.87800
C322        C  0.87544027  0.06856395  0.62606262     0.88000
O323        O  0.91564901  0.87548107  0.59891830    -0.74300
O324        O  0.82797540  0.87779617  0.60124417    -0.74400
O325        O  0.87279992  0.92052267  0.59952592    -0.74400
O326        O  0.87069534  0.83253348  0.60098432    -0.74500
O327        O  0.87302837  0.83322071  0.65221291    -0.74400
O328        O  0.87341459  0.92109825  0.65075005    -0.74400
O329        O  0.82901050  0.87736001  0.65252904    -0.74300
O330        O  0.91695837  0.87683547  0.65004579    -0.74400
Ni331      Ni  0.87172843  0.87653200  0.59834999     1.25400
Ni332      Ni  0.87310623  0.87715473  0.65322105     1.25400
C333        C  0.93087877  0.87589280  0.62404834     0.87900
C334        C  0.81404250  0.87789704  0.62718578     0.87800
C335        C  0.87323064  0.93534933  0.62492942     0.87800
C336        C  0.87187968  0.81841133  0.62686308     0.88000
O337        O  0.39867039  0.16734823  0.12712466    -0.74300
O338        O  0.40311803  0.07950598  0.12559866    -0.74400
O339        O  0.40092815  0.12424555  0.08221444    -0.74400
O340        O  0.40057164  0.12254347  0.17025614    -0.74500
O341        O  0.34939425  0.11951663  0.17016925    -0.74400
O342        O  0.34989325  0.12171281  0.08229417    -0.74400
O343        O  0.35199801  0.07682108  0.12521479    -0.74300
O344        O  0.34749454  0.16491608  0.12683167    -0.74400
Ni345      Ni  0.40263357  0.12351187  0.12629164     1.25400
Ni346      Ni  0.34787001  0.12068924  0.12614815     1.25400
C347        C  0.37241635  0.18065637  0.12705977     0.87900
C348        C  0.37834380  0.06362882  0.12527468     0.87800
C349        C  0.37537370  0.12319678  0.06762130     0.87800
C350        C  0.37493649  0.12065064  0.18468003     0.88000
O351        O  0.35182645  0.12467570  0.91965288    -0.74300
O352        O  0.35018016  0.12489026  0.83183597    -0.74400
O353        O  0.35062133  0.08087300  0.87581751    -0.74400
O354        O  0.35114758  0.16878508  0.87542516    -0.74500
O355        O  0.40243459  0.16858433  0.87556344    -0.74400
O356        O  0.40178313  0.08064778  0.87430743    -0.74400
O357        O  0.40139461  0.12547990  0.83084619    -0.74300
O358        O  0.40291361  0.12381133  0.91871085    -0.74400
Ni359      Ni  0.34912118  0.12483481  0.87573074     1.25400
Ni360      Ni  0.40396048  0.12461483  0.87478002     1.25400
C361        C  0.37763640  0.12392585  0.93380549     0.87900
C362        C  0.37552605  0.12525060  0.81684728     0.87800
C363        C  0.37613774  0.06620435  0.87535102     0.87800
C364        C  0.37684420  0.18310889  0.87559281     0.88000
O365        O  0.40155142  0.83075642  0.87425794    -0.74300
O366        O  0.39983412  0.91875399  0.87437459    -0.74400
O367        O  0.40096409  0.87447513  0.91806404    -0.74400
O368        O  0.40050064  0.87505030  0.83021551    -0.74500
O369        O  0.34925312  0.87541608  0.83046141    -0.74400
O370        O  0.34983789  0.87265333  0.91848602    -0.74400
O371        O  0.34867810  0.91786322  0.87555369    -0.74300
O372        O  0.35029237  0.82998783  0.87321037    -0.74400
Ni373      Ni  0.40253231  0.87479409  0.87418016     1.25400
Ni374      Ni  0.34768322  0.87391743  0.87445674     1.25400
C375        C  0.37614596  0.81592018  0.87363210     0.87900
C376        C  0.37398037  0.93287319  0.87501588     0.87800
C377        C  0.37551012  0.87323995  0.93285449     0.87800
C378        C  0.37484614  0.87556199  0.81584924     0.88000
O379        O  0.35559683  0.87238931  0.08104979    -0.74300
O380        O  0.35638538  0.87053056  0.16884125    -0.74400
O381        O  0.35551569  0.91549321  0.12541875    -0.74400
O382        O  0.35666274  0.82764756  0.12392539    -0.74500
O383        O  0.40792778  0.82835336  0.12471379    -0.74400
O384        O  0.40671878  0.91636335  0.12430634    -0.74400
O385        O  0.40762158  0.87252834  0.16858990    -0.74300
O386        O  0.40677462  0.87239738  0.08043831    -0.74400
Ni387      Ni  0.35423940  0.87150567  0.12490260     1.25400
Ni388      Ni  0.40911650  0.87241131  0.12450750     1.25400
C389        C  0.38101565  0.87267245  0.06618068     0.87900
C390        C  0.38203558  0.87129628  0.18318150     0.87800
C391        C  0.38086965  0.93044822  0.12448129     0.87800
C392        C  0.38248680  0.81355741  0.12403842     0.88000
O393        O  0.87669568  0.35334503  0.16579616    -0.74300
O394        O  0.87392597  0.35462059  0.07783604    -0.74400
O395        O  0.91927195  0.35547456  0.12054108    -0.74400
O396        O  0.83133415  0.35242562  0.12337850    -0.74500
O397        O  0.82938678  0.40362743  0.12217176    -0.74400
O398        O  0.91745237  0.40656113  0.12233853    -0.74400
O399        O  0.87339092  0.40568347  0.07826628    -0.74300
O400        O  0.87334168  0.40445064  0.16625567    -0.74400
Ni401      Ni  0.87536490  0.35214349  0.12181816     1.25400
Ni402      Ni  0.87335228  0.40690461  0.12226579     1.25400
C403        C  0.87538330  0.37873373  0.18052518     0.87900
C404        C  0.87320252  0.38034801  0.06340160     0.87800
C405        C  0.93293202  0.38152653  0.12166117     0.87800
C406        C  0.81590518  0.37748826  0.12314999     0.88000
O407        O  0.91632817  0.35218596  0.87150429    -0.74300
O408        O  0.82830223  0.35147070  0.87109788    -0.74400
O409        O  0.87297282  0.35152769  0.82712811    -0.74400
O410        O  0.87194882  0.35218232  0.91493173    -0.74500
O411        O  0.87174201  0.40324326  0.91462944    -0.74400
O412        O  0.87213626  0.40274141  0.82656087    -0.74400
O413        O  0.82778004  0.40269692  0.87041473    -0.74300
O414        O  0.91605951  0.40339286  0.87046962    -0.74400
Ni415      Ni  0.87236530  0.35004748  0.87111487     1.25400
Ni416      Ni  0.87189629  0.40486536  0.87049310     1.25400
C417        C  0.93071354  0.37785576  0.87127185     0.87900
C418        C  0.81353027  0.37693173  0.87104523     0.87800
C419        C  0.87311268  0.37702673  0.81236694     0.87800
C420        C  0.87180845  0.37770070  0.92943350     0.88000
O421        O  0.12430055  0.35694423  0.08028352    -0.74300
O422        O  0.12519108  0.35580389  0.16818541    -0.74400
O423        O  0.08092344  0.35633593  0.12454577    -0.74400
O424        O  0.16862563  0.35608148  0.12344466    -0.74500
O425        O  0.16900326  0.40732793  0.12432511    -0.74400
O426        O  0.08082434  0.40749872  0.12515036    -0.74400
O427        O  0.12557109  0.40702469  0.16877745    -0.74300
O428        O  0.12449108  0.40801184  0.08068197    -0.74400
Ni429      Ni  0.12477109  0.35450083  0.12415886     1.25400
Ni430      Ni  0.12496720  0.40932071  0.12476731     1.25400
C431        C  0.12415150  0.38264729  0.06583083     0.87900
C432        C  0.12547636  0.38120573  0.18298065     0.87800
C433        C  0.06632769  0.38185401  0.12437879     0.87800
C434        C  0.18324444  0.38157413  0.12373697     0.88000
O435        O  0.16702502  0.40142331  0.87290734    -0.74300
O436        O  0.07892340  0.40351125  0.87178747    -0.74400
O437        O  0.12240209  0.40345279  0.91666177    -0.74400
O438        O  0.12375344  0.40158260  0.82866070    -0.74500
O439        O  0.12152191  0.35038425  0.82998215    -0.74400
O440        O  0.12184050  0.35241070  0.91780269    -0.74400
O441        O  0.07775709  0.35235062  0.87408344    -0.74300
O442        O  0.16573877  0.35023735  0.87376974    -0.74400
Ni443      Ni  0.12305344  0.40433403  0.87252490     1.25400
Ni444      Ni  0.12168302  0.34954075  0.87397395     1.25400
C445        C  0.18090054  0.37545647  0.87301666     0.87900
C446        C  0.06383266  0.37822553  0.87250958     0.87800
C447        C  0.12206641  0.37817530  0.93189374     0.87800
C448        C  0.12259938  0.37566908  0.81488751     0.88000
O449        O  0.65392054  0.82520911  0.12083653    -0.74300
O450        O  0.65080756  0.91309457  0.12355401    -0.74400
O451        O  0.65296590  0.86780631  0.16622211    -0.74400
O452        O  0.65144815  0.87048736  0.07799849    -0.74500
O453        O  0.60036158  0.86802856  0.07893588    -0.74400
O454        O  0.60175426  0.86689799  0.16669825    -0.74400
O455        O  0.59960425  0.91131110  0.12335713    -0.74300
O456        O  0.60278543  0.82344572  0.12241143    -0.74400
Ni457      Ni  0.65413500  0.86919794  0.12208554     1.25400
Ni458      Ni  0.59933532  0.86731865  0.12287165     1.25400
C459        C  0.62886538  0.80978606  0.12134260     0.87900
C460        C  0.62469268  0.92669191  0.12384921     0.87800
C461        C  0.62742565  0.86756574  0.18097816     0.87800
C462        C  0.62563177  0.86950955  0.06386009     0.88000
O463        O  0.64546241  0.83179037  0.87097729    -0.74300
O464        O  0.64472711  0.91949428  0.87233355    -0.74400
O465        O  0.64505830  0.87468829  0.91548755    -0.74400
O466        O  0.64491163  0.87683930  0.82750473    -0.74500
O467        O  0.59366389  0.87562314  0.82775873    -0.74400
O468        O  0.59391901  0.87434246  0.91587490    -0.74400
O469        O  0.59355825  0.91907020  0.87225169    -0.74300
O470        O  0.59422748  0.83091302  0.87132216    -0.74400
Ni471      Ni  0.64682756  0.87568900  0.87152464     1.25400
Ni472      Ni  0.59198717  0.87498393  0.87179068     1.25400
C473        C  0.62011570  0.81686251  0.87154599     0.87900
C474        C  0.61905526  0.93384598  0.87237302     0.87800
C475        C  0.61956186  0.87420276  0.93030118     0.87800
C476        C  0.61924155  0.87663068  0.81314917     0.88000
O477        O  0.64416909  0.16998128  0.88101112    -0.74300
O478        O  0.64650116  0.08221363  0.87689411    -0.74400
O479        O  0.64634646  0.12843723  0.83495589    -0.74400
O480        O  0.64442550  0.12384293  0.92276965    -0.74500
O481        O  0.59327881  0.12388687  0.92180893    -0.74400
O482        O  0.59515387  0.12544825  0.83375794    -0.74400
O483        O  0.59533668  0.08099569  0.87704357    -0.74300
O484        O  0.59294902  0.16880154  0.87818306    -0.74400
Ni485      Ni  0.64718808  0.12618739  0.87893303     1.25400
Ni486      Ni  0.59234034  0.12478490  0.87769638     1.25400
C487        C  0.61821224  0.18375836  0.87987584     0.87900
C488        C  0.62126105  0.06706111  0.87659061     0.87800
C489        C  0.62110361  0.12730026  0.81993096     0.87800
C490        C  0.61855321  0.12315241  0.93687342     0.88000
O491        O  0.64752066  0.16193949  0.12880426    -0.74300
O492        O  0.64792943  0.07407860  0.12902277    -0.74400
O493        O  0.64726282  0.11792936  0.08465645    -0.74400
O494        O  0.64786370  0.11779372  0.17276543    -0.74500
O495        O  0.59657910  0.11871920  0.17289992    -0.74400
O496        O  0.59609216  0.11724920  0.08507463    -0.74400
O497        O  0.59668485  0.07383118  0.12966429    -0.74300
O498        O  0.59626348  0.16203346  0.12802860    -0.74400
Ni499      Ni  0.64946894  0.11796685  0.12875692     1.25400
Ni500      Ni  0.59457631  0.11792841  0.12896124     1.25400
C501        C  0.62192847  0.17647503  0.12844408     0.87900
C502        C  0.62241573  0.05945826  0.12958369     0.87800
C503        C  0.62156604  0.11737972  0.07028590     0.87800
C504        C  0.62222632  0.11846715  0.18726334     0.88000
O505        O  0.12580902  0.59476281  0.08400604    -0.74300
O506        O  0.13040483  0.59667748  0.17171605    -0.74400
O507        O  0.08433546  0.59486066  0.13033511    -0.74400
O508        O  0.17220783  0.59675869  0.12510193    -0.74500
O509        O  0.17102727  0.64800444  0.12406764    -0.74400
O510        O  0.08327540  0.64599993  0.12949395    -0.74400
O511        O  0.12992366  0.64796202  0.17055292    -0.93500
O512        O  0.12443168  0.64590094  0.08272785    -0.74400
Ni513      Ni  0.12827763  0.59394118  0.12785617     1.25400
Ni514      Ni  0.12712753  0.64879423  0.12664436     1.25400
C515        C  0.12410903  0.61997107  0.06885094     0.87900
C516        C  0.13069488  0.62260804  0.18550865     0.87800
C517        C  0.06926112  0.62014887  0.13083354     0.87800
C518        C  0.18603447  0.62271933  0.12367413     0.88000
O519        O  0.16839923  0.64288240  0.87835349    -0.74300
O520        O  0.08082614  0.64040791  0.87636581    -0.74400
O521        O  0.12341153  0.64115844  0.92117246    -0.74400
O522        O  0.12543981  0.64184020  0.83324618    -0.74500
O523        O  0.12722569  0.59063162  0.83276819    -0.74400
O524        O  0.12492450  0.59003198  0.92082079    -0.74400
O525        O  0.08195711  0.58923141  0.87577543    -0.74300
O526        O  0.17013586  0.59166397  0.87764739    -0.74400
Ni527      Ni  0.12450581  0.64335534  0.87724694     1.25400
Ni528      Ni  0.12611448  0.58852284  0.87675873     1.25400
C529        C  0.18370367  0.61778593  0.87848777     0.87900
C530        C  0.06687811  0.61454350  0.87586173     0.87800
C531        C  0.12381135  0.61544679  0.93557374     0.87800
C532        C  0.12659419  0.61641259  0.81852853     0.88000
O533        O  0.91911392  0.59230328  0.87729603    -0.74300
O534        O  0.83112044  0.59331921  0.87711431    -0.74400
O535        O  0.87568159  0.59407604  0.83317871    -0.74400
O536        O  0.87527071  0.59177437  0.92147861    -0.74500
O537        O  0.87645418  0.64281621  0.92231492    -0.74400
O538        O  0.87500059  0.64530050  0.83447471    -0.74400
O539        O  0.83170543  0.64447650  0.87934077    -0.74300
O540        O  0.91960201  0.64347888  0.87776248    -0.74400
Ni541      Ni  0.87518299  0.59101978  0.87723371     1.25400
Ni542      Ni  0.87566641  0.64581346  0.87849632     1.25400
C543        C  0.93387916  0.61774216  0.87762730     0.87900
C544        C  0.81690693  0.61907780  0.87823200     0.87800
C545        C  0.87574418  0.62012645  0.81935415     0.87800
C546        C  0.87655440  0.61704220  0.93654954     0.88000
O547        O  0.87666350  0.59279515  0.17430142    -0.74300
O548        O  0.87782075  0.58930728  0.08624001    -0.74400
O549        O  0.92115316  0.59074661  0.13087653    -0.74400
O550        O  0.83318460  0.59129127  0.13005310    -0.74500
O551        O  0.83352241  0.64243291  0.12637396    -0.74400
O552        O  0.92143874  0.64187916  0.12987011    -0.74400
O553        O  0.87923738  0.64033266  0.08428291    -0.74300
O554        O  0.87560604  0.64396231  0.17206573    -0.74400
Ni555      Ni  0.87717533  0.58920138  0.13041831     1.25400
Ni556      Ni  0.87747225  0.64396467  0.12806884     1.25400
C557        C  0.87594276  0.61896333  0.18767030     0.87900
C558        C  0.87887170  0.61429656  0.07060602     0.87800
C559        C  0.93587580  0.61622040  0.13064462     0.87800
C560        C  0.81891837  0.61695464  0.12809888     0.88000
O561        O  0.41717534  0.37202950  0.15234790    -0.74300
O562        O  0.32925294  0.37415483  0.15008023    -0.74400
O563        O  0.37240056  0.32889682  0.15246682    -0.74400
O564        O  0.37404541  0.41697380  0.15005564    -0.74500
O565        O  0.37595477  0.41563250  0.09887709    -0.74400
O566        O  0.37275185  0.32761895  0.10119390    -0.74400
O567        O  0.33061211  0.37311287  0.09881165    -0.74300
O568        O  0.41825349  0.37013307  0.10127242    -0.74400
Ni569      Ni  0.37315266  0.37302439  0.15307544     1.25400
Ni570      Ni  0.37446537  0.37157666  0.09823206     1.25400
C571        C  0.43233928  0.37064753  0.12711656     0.87900
C572        C  0.31550248  0.37420223  0.12405880     0.87800
C573        C  0.37235502  0.31376889  0.12722592     0.87800
C574        C  0.37534395  0.43085240  0.12405063     0.88000
O575        O  0.37790808  0.66623823  0.09533409    -0.74300
O576        O  0.37656780  0.57824109  0.09699327    -0.74400
O577        O  0.33321513  0.62287686  0.09597363    -0.74400
O578        O  0.42126498  0.62159969  0.09642294    -0.74500
O579        O  0.42072536  0.62107443  0.14757507    -0.74400
O580        O  0.33301604  0.62530395  0.14719771    -0.74400
O581        O  0.37474805  0.57912425  0.14819271    -0.74300
O582        O  0.37916105  0.66692365  0.14659652    -0.74400
Ni583      Ni  0.37724702  0.62219930  0.09433354     1.25400
Ni584      Ni  0.37688429  0.62309983  0.14920152     1.25400
C585        C  0.37902192  0.68104273  0.12072288     0.87900
C586        C  0.37512113  0.56415104  0.12287553     0.87800
C587        C  0.31864967  0.62468492  0.12154551     0.87800
C588        C  0.43560245  0.62125731  0.12214841     0.88000
O589        O  0.67241931  0.61723661  0.09854542    -0.74300
O590        O  0.58463015  0.61970674  0.09594547    -0.74400
O591        O  0.63004856  0.66240487  0.09669299    -0.74400
O592        O  0.62702966  0.57437868  0.09801087    -0.74500
O593        O  0.62582193  0.57508906  0.14912220    -0.74400
O594        O  0.62766284  0.66281354  0.14797204    -0.74400
O595        O  0.58302959  0.61980458  0.14708382    -0.74300
O596        O  0.67096806  0.61802220  0.14977732    -0.74400
Ni597      Ni  0.62861150  0.61838559  0.09546705     1.25400
Ni598      Ni  0.62686716  0.61894922  0.15030475     1.25400
C599        C  0.68620216  0.61772199  0.12451373     0.87900
C600        C  0.56923470  0.61990222  0.12107127     0.87800
C601        C  0.62898895  0.67701087  0.12219079     0.87800
C602        C  0.62575301  0.56012210  0.12384774     0.88000
O603        O  0.66887738  0.36927936  0.14856133    -0.74300
O604        O  0.58084916  0.36724431  0.14930018    -0.74400
O605        O  0.62578389  0.32416031  0.14970507    -0.74400
O606        O  0.62371422  0.41207749  0.14819095    -0.74500
O607        O  0.62351048  0.41155591  0.09706000    -0.74400
O608        O  0.62509278  0.32352058  0.09844181    -0.74400
O609        O  0.58067798  0.36676987  0.09819776    -0.74300
O610        O  0.66857522  0.36891779  0.09729487    -0.74400
Ni611      Ni  0.62486921  0.36816121  0.15075670     1.25400
Ni612      Ni  0.62452936  0.36758164  0.09592923     1.25400
C613        C  0.68320592  0.37011919  0.12279757     0.87900
C614        C  0.56612000  0.36706978  0.12380383     0.87800
C615        C  0.62503454  0.30934120  0.12432413     0.87800
C616        C  0.62302875  0.42643316  0.12241137     0.88000
O617        O  0.37526128  0.66847163  0.85223251    -0.74300
O618        O  0.37425496  0.58073536  0.85311362    -0.74400
O619        O  0.33092236  0.62468432  0.85259230    -0.74400
O620        O  0.41877988  0.62389106  0.85270828    -0.74500
O621        O  0.41874671  0.62351377  0.90385490    -0.74400
O622        O  0.33066212  0.62586810  0.90384686    -0.74400
O623        O  0.37351674  0.58078255  0.90424421    -0.74300
O624        O  0.37612488  0.66887216  0.90348790    -0.74400
Ni625      Ni  0.37482479  0.62452137  0.85087267     1.25400
Ni626      Ni  0.37473930  0.62483508  0.90571326     1.25400
C627        C  0.37616688  0.68317003  0.87767804     0.87900
C628        C  0.37362327  0.56614734  0.87869922     0.87800
C629        C  0.31630894  0.62468401  0.87817096     0.87800
C630        C  0.43337940  0.62305531  0.87825832     0.88000
O631        O  0.67023425  0.62546606  0.85182220    -0.74300
O632        O  0.58224684  0.62410898  0.85004424    -0.74400
O633        O  0.62506195  0.66901545  0.84948384    -0.74400
O634        O  0.62688262  0.58121993  0.85229949    -0.74500
O635        O  0.62561403  0.58237788  0.90340699    -0.74400
O636        O  0.62454668  0.67040372  0.90076667    -0.74400
O637        O  0.58116776  0.62564555  0.90115304    -0.74300
O638        O  0.66913540  0.62695870  0.90307935    -0.74400
Ni639      Ni  0.62622636  0.62498247  0.84910039     1.25400
Ni640      Ni  0.62510811  0.62644655  0.90393099     1.25400
C641        C  0.68416264  0.62596303  0.87774821     0.87900
C642        C  0.56709261  0.62437785  0.87531557     0.87800
C643        C  0.62408029  0.68414393  0.87467591     0.87800
C644        C  0.62603144  0.56718852  0.87819452     0.88000
O645        O  0.66720878  0.37389453  0.90675948    -0.74300
O646        O  0.57880635  0.37547678  0.91039752    -0.74400
O647        O  0.62206475  0.33096015  0.90863274    -0.74400
O648        O  0.62384106  0.41877068  0.90888417    -0.74500
O649        O  0.62197857  0.41911955  0.85778648    -0.74400
O650        O  0.62002562  0.33115778  0.85750734    -0.74400
O651        O  0.57713085  0.37627372  0.85915976    -0.74300
O652        O  0.66500371  0.37457855  0.85554890    -0.74400
Ni653      Ni  0.62306229  0.37477834  0.91050232     1.25400
Ni654      Ni  0.62097467  0.37524461  0.85570283     1.25400
C655        C  0.68063653  0.37414834  0.88045065     0.87900
C656        C  0.56345691  0.37608632  0.88525412     0.87800
C657        C  0.62067117  0.31646910  0.88312616     0.87800
C658        C  0.62328550  0.43356666  0.88339451     0.88000
O659        O  0.37451692  0.33117411  0.85118854    -0.74300
O660        O  0.37226576  0.41883681  0.85448153    -0.74400
O661        O  0.41739736  0.37642477  0.85529605    -0.74400
O662        O  0.32946441  0.37420874  0.85040113    -0.74500
O663        O  0.32684206  0.37118437  0.90156880    -0.74400
O664        O  0.41470359  0.37447890  0.90648428    -0.74400
O665        O  0.36913400  0.41694652  0.90550946    -0.74300
O666        O  0.37259845  0.32905583  0.90240814    -0.74400
Ni667      Ni  0.37352190  0.37518150  0.85102537     1.25400
Ni668      Ni  0.37067943  0.37285191  0.90581876     1.25400
C669        C  0.37391929  0.31565538  0.87625998     0.87900
C670        C  0.37043851  0.43249911  0.88046409     0.87800
C671        C  0.43051579  0.37617482  0.88166183     0.87800
C672        C  0.31371576  0.37228339  0.87524545     0.88000
C673        C  0.52942798  0.37681442  0.88594285    -0.00100
C674        C  0.51401237  0.39641990  0.86541809    -0.11900
C675        C  0.48184832  0.39715074  0.86423243     0.02200
C676        C  0.46445703  0.37754837  0.88347129    -0.00100
C677        C  0.47981774  0.35842566  0.90448666    -0.11900
C678        C  0.51202576  0.35781236  0.90578885     0.02100
H679        H  0.52717007  0.41146594  0.85045013     0.15100
H680        H  0.46663973  0.34323075  0.91928179     0.15100
C681        C  0.52658598  0.33614727  0.92631121     0.36700
C682        C  0.46725198  0.41918725  0.84409878     0.36600
N683        N  0.53820388  0.31862912  0.94263512    -0.43600
N684        N  0.45550985  0.43701863  0.82820502    -0.43600
C685        C  0.62532846  0.53299082  0.87911488    -0.00100
C686        C  0.63096875  0.51786964  0.90716879    -0.11900
C687        C  0.63041601  0.48574173  0.90940637     0.02200
C688        C  0.62402348  0.46779501  0.88304740    -0.00100
C689        C  0.61822874  0.48298298  0.85508736    -0.11900
C690        C  0.61875604  0.51501207  0.85285024     0.02100
H691        H  0.63608976  0.53116747  0.92755561     0.15100
H692        H  0.61298367  0.46980500  0.83465563     0.15100
C693        C  0.61175659  0.52841708  0.82324930     0.36700
C694        C  0.63697378  0.47220147  0.93904305     0.36600
N695        N  0.60614543  0.53900491  0.79947038    -0.43600
N696        N  0.64223631  0.46153926  0.96287266    -0.43600
C697        C  0.37280366  0.53195021  0.87881116    -0.00100
C698        C  0.36544487  0.51641281  0.90628053    -0.11900
C699        C  0.36429662  0.48424068  0.90763869     0.02200
C700        C  0.37052678  0.46671859  0.88095406    -0.00100
C701        C  0.37777115  0.48233075  0.85353056    -0.11900
C702        C  0.37912648  0.51435854  0.85220270     0.02100
H703        H  0.36040152  0.52941641  0.92689704     0.15100
H704        H  0.38297657  0.46947586  0.83285871     0.15100
C705        C  0.38801528  0.52809543  0.82322647     0.36700
C706        C  0.35644126  0.47020285  0.93674797     0.36600
N707        N  0.39522024  0.53891833  0.79995833    -0.43600
N708        N  0.35020266  0.45911700  0.96017151    -0.43600
C709        C  0.46760615  0.62193172  0.87783619    -0.00100
C710        C  0.48303294  0.62820359  0.85006233    -0.11900
C711        C  0.51516331  0.62837640  0.84829463     0.02200
C712        C  0.53288114  0.62299411  0.87505661    -0.00100
C713        C  0.51745455  0.61583061  0.90261686    -0.11900
C714        C  0.48532995  0.61472820  0.90414981     0.02100
H715        H  0.46996064  0.63317705  0.82943948     0.15100
H716        H  0.53054596  0.61054401  0.92315376     0.15100
C717        C  0.47156020  0.60489439  0.93278968     0.36700
C718        C  0.52890852  0.63418964  0.81857825     0.36600
N719        N  0.46074163  0.59669260  0.95572839    -0.43600
N720        N  0.53969568  0.63859042  0.79461123    -0.43600
C721        C  0.62401115  0.52592350  0.12428965    -0.00100
C722        C  0.61757934  0.51042472  0.09671601    -0.11900
C723        C  0.61632667  0.47829017  0.09549468     0.02200
C724        C  0.62216122  0.46066085  0.12229205    -0.00100
C725        C  0.62767279  0.47619098  0.15002665    -0.11900
C726        C  0.62846508  0.50828587  0.15136212     0.02100
H727        H  0.61325681  0.52344706  0.07588116     0.15100
H728        H  0.63180944  0.46322813  0.17093582     0.15100
C729        C  0.63437312  0.52205666  0.18094364     0.36700
C730        C  0.60827473  0.46441571  0.06647934     0.36600
N731        N  0.63898206  0.53289087  0.20476042    -0.43600
N732        N  0.60166313  0.45347939  0.04319047    -0.43600
C733        C  0.46980374  0.62110987  0.12232520    -0.00100
C734        C  0.48556749  0.61340977  0.09516041    -0.11900
C735        C  0.51773658  0.61279641  0.09398275     0.02200
C736        C  0.53505289  0.62032679  0.12044738    -0.00100
C737        C  0.51926790  0.62815762  0.14752884    -0.11900
C738        C  0.48716640  0.62860342  0.14876960     0.02100
H739        H  0.47272426  0.60736621  0.07471365     0.15100
H740        H  0.53205500  0.63418322  0.16801647     0.15100
C741        C  0.47304923  0.63739918  0.17752233     0.36700
C742        C  0.53199697  0.60340460  0.06549270     0.36600
N743        N  0.46192010  0.64438942  0.20066380    -0.43600
N744        N  0.54326569  0.59579050  0.04261705    -0.43600
C745        C  0.46658023  0.36966110  0.12725469    -0.00100
C746        C  0.48202893  0.37079773  0.09884397    -0.11900
C747        C  0.51407516  0.36981490  0.09698167     0.02200
C748        C  0.53185875  0.36760393  0.12414970    -0.00100
C749        C  0.51644345  0.36649517  0.15262322    -0.11900
C750        C  0.48430075  0.36752223  0.15446785     0.02100
H751        H  0.46904505  0.37259897  0.07767169     0.15100
H752        H  0.52951458  0.36484359  0.17375174     0.15100
C753        C  0.47054886  0.36620967  0.18470893     0.36700
C754        C  0.52760750  0.37141922  0.06664773     0.36600
N755        N  0.45973799  0.36517522  0.20903549    -0.43600
N756        N  0.53822390  0.37271949  0.04224948    -0.43600
C757        C  0.37444876  0.53007329  0.12337918    -0.00100
C758        C  0.39001723  0.51397649  0.10013166    -0.11900
C759        C  0.39077546  0.48180234  0.09989090     0.02200
C760        C  0.37558262  0.46495902  0.12326181    -0.00100
C761        C  0.35986036  0.48107076  0.14642268    -0.11900
C762        C  0.35896669  0.51325193  0.14656235     0.02100
H763        H  0.40218021  0.52658826  0.08234058     0.15100
H764        H  0.34765287  0.46846414  0.16418600     0.15100
C765        C  0.34077258  0.52826262  0.16992945     0.36700
C766        C  0.40837703  0.46685175  0.07605075     0.36600
N767        N  0.32603785  0.54026213  0.18854522    -0.43600
N768        N  0.42255470  0.45495603  0.05694520    -0.43600
C769        C  0.78505504  0.61722055  0.12775642    -0.00100
C770        C  0.76990257  0.63372424  0.10460457    -0.11900
C771        C  0.73777535  0.63413589  0.10306588     0.02200
C772        C  0.72021380  0.61805416  0.12531601    -0.00100
C773        C  0.73547641  0.60224657  0.14899249    -0.11900
C774        C  0.76763673  0.60157569  0.15027090     0.02100
H775        H  0.78325198  0.64610716  0.08747526     0.15100
H776        H  0.72225195  0.59014669  0.16640653     0.15100
C777        C  0.78225757  0.58582106  0.17559416     0.36700
C778        C  0.72349851  0.65216670  0.07908747     0.36600
N779        N  0.79407487  0.57339058  0.19594222    -0.43600
N780        N  0.71203448  0.66663724  0.05991421    -0.43600
C781        C  0.78290107  0.61981499  0.87838322    -0.00100
C782        C  0.76790532  0.64133262  0.89717077    -0.11900
C783        C  0.73579046  0.64349741  0.89765174     0.02200
C784        C  0.71808992  0.62445434  0.87837159    -0.00100
C785        C  0.73304547  0.60302540  0.85948015    -0.11900
C786        C  0.76512774  0.60024189  0.85963968     0.02100
H787        H  0.78134735  0.65639821  0.91172164     0.15100
H788        H  0.71955943  0.58811674  0.84480484     0.15100
C789        C  0.77917162  0.57782640  0.83962580     0.36700
C790        C  0.72167642  0.66611500  0.91737461     0.36600
N791        N  0.79036832  0.55979667  0.82362485    -0.43600
N792        N  0.71043367  0.68423389  0.93323745    -0.43600
C793        C  0.87825957  0.61643927  0.97084227    -0.00100
C794        C  0.87331954  0.58853490  0.98651862    -0.11900
C795        C  0.87397568  0.58687592  0.01875501     0.02200
C796        C  0.87950000  0.61369337  0.03627772    -0.00100
C797        C  0.88527875  0.64135037  0.02052863    -0.11900
C798        C  0.88488883  0.64299183  0.98841553     0.02100
H799        H  0.86857139  0.56783018  0.97359416     0.15100
H800        H  0.89019426  0.66208753  0.03334661     0.15100
C801        C  0.89186657  0.67238970  0.97454959     0.36700
C802        C  0.86843121  0.55734274  0.03290153     0.36600
N803        N  0.89749187  0.69602607  0.96365188    -0.43600
N804        N  0.86405638  0.53362017  0.04416803    -0.43600
C805        C  0.21757511  0.61917193  0.87931225    -0.00100
C806        C  0.23449570  0.60116192  0.85866652    -0.11900
C807        C  0.26661184  0.60296970  0.85761702     0.02200
C808        C  0.28238285  0.62263214  0.87805472    -0.00100
C809        C  0.26544255  0.64003573  0.89925894    -0.11900
C810        C  0.23327963  0.63873995  0.89979808     0.02100
H811        H  0.22254592  0.58605403  0.84292031     0.15100
H812        H  0.27735101  0.65498000  0.91519651     0.15100
C813        C  0.21695045  0.65701373  0.92217570     0.36700
C814        C  0.28281046  0.58371482  0.83597104     0.36600
N815        N  0.20379496  0.67160931  0.94008993    -0.43600
N816        N  0.29581903  0.56833185  0.81861807    -0.43600
C817        C  0.96790256  0.61717375  0.87760992    -0.00100
C818        C  0.98308914  0.59250116  0.86337683    -0.11900
C819        C  0.01522360  0.59110019  0.86222293     0.02200
C820        C  0.03285267  0.61447312  0.87610941    -0.00100
C821        C  0.01764212  0.63899351  0.89054204    -0.11900
C822        C  0.98557823  0.64059439  0.89139022     0.02100
H823        H  0.96979955  0.57451486  0.85247359     0.15100
H824        H  0.03089083  0.65695903  0.90156085     0.15100
C825        C  0.97165676  0.66606518  0.90744684     0.36700
C826        C  0.02928700  0.56632910  0.84525118     0.36600
N827        N  0.96066869  0.68654986  0.92032307    -0.43600
N828        N  0.04041004  0.54655353  0.83141418    -0.43600
C829        C  0.28471133  0.62549954  0.12148408    -0.00100
C830        C  0.26875116  0.60644061  0.10101861    -0.11900
C831        C  0.23658972  0.60532019  0.10119070     0.02200
C832        C  0.21987988  0.62365884  0.12204478    -0.00100
C833        C  0.23576738  0.64354464  0.14172668    -0.11900
C834        C  0.26792302  0.64458385  0.14166718     0.02100
H835        H  0.28146150  0.59205926  0.08510259     0.15100
H836        H  0.22299310  0.65810324  0.15743801     0.15100
C837        C  0.28303237  0.66633641  0.16157722     0.36700
C838        C  0.22126868  0.58622434  0.07888020     0.36600
N839        N  0.29510213  0.68393160  0.17737127    -0.43600
N840        N  0.20903301  0.57111016  0.06081161    -0.43600
C841        C  0.03515306  0.61924220  0.13223165    -0.00100
C842        C  0.01996712  0.59291494  0.12146136    -0.11900
C843        C  0.98784410  0.59123040  0.12084158     0.02200
C844        C  0.97002391  0.61627996  0.13139822    -0.00100
C845        C  0.98521774  0.64238973  0.14269979    -0.11900
C846        C  0.01735285  0.64406247  0.14332352     0.02100
H847        H  0.03322920  0.57374533  0.11271419     0.15100
H848        H  0.97193859  0.66159636  0.15134057     0.15100
C849        C  0.03121081  0.67125050  0.15624978     0.36700
C850        C  0.97406497  0.56397739  0.10796830     0.36600
N851        N  0.04221761  0.69305644  0.16666479    -0.43600
N852        N  0.96313993  0.54211667  0.09758227    -0.43600
C853        C  0.12288386  0.61545142  0.96972100    -0.00100
C854        C  0.11000955  0.64091348  0.98485153    -0.11900
C855        C  0.10932142  0.64262353  0.01700009     0.02200
C856        C  0.12243189  0.61879358  0.03480389    -0.00100
C857        C  0.13455141  0.59299263  0.01971305    -0.11900
C858        C  0.13474809  0.59100510  0.98761454     0.02100
H859        H  0.10000829  0.65947111  0.97150895     0.15100
H860        H  0.14446223  0.57437891  0.03303922     0.15100
C861        C  0.14810246  0.56391072  0.97394028     0.36700
C862        C  0.09378766  0.66841265  0.03093849     0.36600
N863        N  0.15870195  0.54206644  0.96314221    -0.43600
N864        N  0.08109341  0.68894725  0.04206088    -0.43600
C865        C  0.62217245  0.21046092  0.12830212    -0.00100
C866        C  0.60299975  0.22636070  0.10779882    -0.11900
C867        C  0.60371145  0.25852997  0.10596322     0.02200
C868        C  0.62375765  0.27535552  0.12511761    -0.00100
C869        C  0.64212739  0.25946154  0.14634876    -0.11900
C870        C  0.64158727  0.22732017  0.14800407     0.02100
H871        H  0.58768212  0.21358394  0.09289591     0.15100
H872        H  0.65711161  0.27221223  0.16160616     0.15100
C873        C  0.66017201  0.21223487  0.17101163     0.36700
C874        C  0.58266470  0.27374975  0.08528089     0.36600
N875        N  0.67489191  0.20009849  0.18955287    -0.43600
N876        N  0.56567640  0.28597044  0.06885865    -0.43600
C877        C  0.61759653  0.21747626  0.88073264    -0.00100
C878        C  0.62899202  0.23230377  0.90678839    -0.11900
C879        C  0.62968185  0.26437745  0.90847184     0.02200
C880        C  0.61956495  0.28231418  0.88313764    -0.00100
C881        C  0.60808022  0.26714705  0.85702046    -0.11900
C882        C  0.60673740  0.23502427  0.85578935     0.02100
H883        H  0.63721769  0.21868143  0.92604209     0.15100
H884        H  0.59994885  0.28038376  0.83748937     0.15100
C885        C  0.59509893  0.22053562  0.82834755     0.36700
C886        C  0.64121440  0.27784744  0.93645599     0.36600
N887        N  0.58580833  0.20888614  0.80636701    -0.43600
N888        N  0.65020686  0.28834623  0.95913170    -0.43600
C889        C  0.61828912  0.12107250  0.97101657    -0.00100
C890        C  0.64456533  0.10961835  0.98595319    -0.11900
C891        C  0.64595443  0.10739451  0.01804446     0.02200
C892        C  0.62092655  0.11754252  0.03612580    -0.00100
C893        C  0.59439125  0.12835280  0.02120341    -0.11900
C894        C  0.59273918  0.12999365  0.98908811     0.02100
H895        H  0.66403362  0.10179867  0.97248834     0.15100
H896        H  0.57485994  0.13599251  0.03468083     0.15100
C897        C  0.56467566  0.14150440  0.97563245     0.36700
C898        C  0.67278723  0.09325484  0.03151675     0.36600
N899        N  0.54206137  0.15057218  0.96498417    -0.43600
N900        N  0.69419041  0.08165577  0.04221843    -0.43600
C901        C  0.62093690  0.78289964  0.87287238    -0.00100
C902        C  0.59973669  0.76589789  0.85559181    -0.11900
C903        C  0.60051073  0.73369368  0.85565338     0.02200
C904        C  0.62243815  0.71800743  0.87372803    -0.00100
C905        C  0.64297807  0.73496202  0.89171680    -0.11900
C906        C  0.64259542  0.76711105  0.89125769     0.02100
H907        H  0.58280634  0.77779296  0.84169060     0.15100
H908        H  0.65961748  0.72302418  0.90593372     0.15100
C909        C  0.66400025  0.78329470  0.91070201     0.36700
C910        C  0.57786839  0.71730781  0.83788732     0.36600
N911        N  0.68111067  0.79631559  0.92627546    -0.43600
N912        N  0.55959806  0.70430329  0.82368798    -0.43600
C913        C  0.62161264  0.03299183  0.87536821    -0.00100
C914        C  0.59576368  0.01784775  0.86340690    -0.11900
C915        C  0.59440719  0.98578194  0.86192788     0.02200
C916        C  0.61924620  0.96795739  0.87289614    -0.00100
C917        C  0.64525117  0.98310072  0.88459642    -0.11900
C918        C  0.64667451  0.01520590  0.88594205     0.02100
H919        H  0.57655875  0.03113239  0.85472726     0.15100
H920        H  0.66447689  0.96980281  0.89320827     0.15100
C921        C  0.67375132  0.02898295  0.89922838     0.36700
C922        C  0.56765337  0.97207813  0.84797338     0.36600
N923        N  0.69549736  0.03990147  0.90988623    -0.43600
N924        N  0.54620129  0.96123345  0.83667765    -0.43600
C925        C  0.62974340  0.77570272  0.12121515    -0.00100
C926        C  0.60550115  0.75963623  0.13540261    -0.11900
C927        C  0.60512407  0.72752440  0.13626034     0.02200
C928        C  0.62886952  0.71080811  0.12195828    -0.00100
C929        C  0.65295765  0.72659543  0.10746742    -0.11900
C930        C  0.65391536  0.75878318  0.10742630     0.02100
H931        H  0.58693092  0.77219457  0.14629871     0.15100
H932        H  0.67136646  0.71370521  0.09665560     0.15100
C933        C  0.67981873  0.77359664  0.09280968     0.36700
C934        C  0.57975611  0.71221441  0.15135507     0.36600
N935        N  0.70079840  0.78528688  0.08129814    -0.43600
N936        N  0.55948459  0.69992061  0.16349704    -0.43600
C937        C  0.62357678  0.96064575  0.12525010    -0.00100
C938        C  0.64539219  0.97616976  0.14317098    -0.11900
C939        C  0.64502783  0.00825616  0.14552448     0.02200
C940        C  0.62270274  0.02546668  0.12937978    -0.00100
C941        C  0.60071787  0.00992811  0.11172025    -0.11900
C942        C  0.60105144  0.97784833  0.10941032     0.02100
H943        H  0.66245242  0.96315076  0.15583890     0.15100
H944        H  0.58371727  0.02294631  0.09897880     0.15100
C945        C  0.57901792  0.96335113  0.08935907     0.36700
C946        C  0.66693692  0.02276344  0.16573165     0.36600
N947        N  0.56147213  0.95172328  0.07317770    -0.43600
N948        N  0.68437969  0.03431189  0.18208559    -0.43600
C949        C  0.62456004  0.87038591  0.02966424    -0.00100
C950        C  0.59716944  0.87969059  0.01524099    -0.11900
C951        C  0.59474414  0.88108437  0.98313523     0.02200
C952        C  0.62022830  0.87305335  0.96451915    -0.00100
C953        C  0.64751199  0.86356183  0.97898112    -0.11900
C954        C  0.64988002  0.86204894  0.01103760     0.02100
H955        H  0.57752716  0.88630461  0.02910699     0.15100
H956        H  0.66716059  0.85685642  0.96517718     0.15100
C957        C  0.67837369  0.85091905  0.02385306     0.36700
C958        C  0.56599085  0.89154802  0.97028649     0.36600
N959        N  0.70130282  0.84196577  0.03389108    -0.43600
N960        N  0.54285278  0.89992032  0.96020700    -0.43600
C961        C  0.27983054  0.37184452  0.87361977    -0.00100
C962        C  0.26475078  0.39420036  0.85592207    -0.11900
C963        C  0.23258312  0.39574387  0.85525569     0.02200
C964        C  0.21493533  0.37443754  0.87242634    -0.00100
C965        C  0.23012098  0.35133444  0.88914379    -0.11900
C966        C  0.26227430  0.34993327  0.88991254     0.02100
H967        H  0.27815985  0.41081586  0.84296492     0.15100
H968        H  0.21684052  0.33449933  0.90193251     0.15100
C969        C  0.27674933  0.32507729  0.90651335     0.36700
C970        C  0.21833201  0.41866744  0.83588860     0.36600
N971        N  0.28842802  0.30504205  0.91956460    -0.43600
N972        N  0.20688792  0.43693401  0.82027436    -0.43600
C973        C  0.28168683  0.37610177  0.12322990    -0.00100
C974        C  0.26674693  0.39584005  0.14387821    -0.11900
C975        C  0.23472097  0.39862234  0.14389059     0.02200
C976        C  0.21708446  0.38092040  0.12334822    -0.00100
C977        C  0.23198656  0.36107649  0.10278321    -0.11900
C978        C  0.26405090  0.35876903  0.10230644     0.02100
H979        H  0.28018043  0.40931447  0.15994081     0.15100
H980        H  0.21848768  0.34733806  0.08699757     0.15100
C981        C  0.27813147  0.33757201  0.08100953     0.36700
C982        C  0.22051496  0.41879255  0.16604957     0.36600
N983        N  0.28940715  0.32059243  0.06394566    -0.43600
N984        N  0.20922011  0.43498668  0.18384089    -0.43600
C985        C  0.12343223  0.38249714  0.03153837    -0.00100
C986        C  0.12078127  0.35405966  0.01654577    -0.11900
C987        C  0.12007784  0.35196568  0.98448841     0.02200
C988        C  0.12215417  0.37890134  0.96620459    -0.00100
C989        C  0.12460510  0.40741552  0.98116839    -0.11900
C990        C  0.12522599  0.40949699  0.01333022     0.02100
H991        H  0.11913836  0.33305588  0.02990436     0.15100
H992        H  0.12619468  0.42836706  0.96772670     0.15100
C993        C  0.12787528  0.43975131  0.02660865     0.36700
C994        C  0.11700941  0.32163523  0.97146520     0.36600
N995        N  0.12995898  0.46406526  0.03709367    -0.43600
N996        N  0.11454057  0.29725526  0.96122553    -0.43600
C997        C  0.77953396  0.37639173  0.87274209    -0.00100
C998        C  0.76536723  0.35643945  0.89386102    -0.11900
C999        C  0.73331188  0.35552284  0.89701985     0.02200
C1000       C  0.71468247  0.37453728  0.87844598    -0.00100
C1001       C  0.72886393  0.39407144  0.85685842    -0.11900
C1002       C  0.76097480  0.39532396  0.85403683     0.02100
H1003       H  0.77946274  0.34167848  0.90822044     0.15100
H1004       H  0.71478323  0.40859629  0.84225239     0.15100
C1005       C  0.77423334  0.41521467  0.83091314     0.36700
C1006       C  0.72023677  0.33390473  0.91857031     0.36600
N1007       N  0.78483739  0.43104335  0.81227234    -0.43600
N1008       N  0.71013959  0.31635406  0.93587238    -0.43600
C1009       C  0.96475684  0.37794781  0.87196012    -0.00100
C1010       C  0.98092419  0.39904434  0.85352726    -0.11900
C1011       C  0.01316927  0.39939293  0.85308978     0.02200
C1012       C  0.02980475  0.37868190  0.87180158    -0.00100
C1013       C  0.01361655  0.35757859  0.89015405    -0.11900
C1014       C  0.98144133  0.35711178  0.89047881     0.02100
H1015       H  0.96833612  0.41479943  0.83887295     0.15100
H1016       H  0.02616326  0.34171193  0.90473025     0.15100
C1017       C  0.96616910  0.33593585  0.91108663     0.36700
C1018       C  0.02856559  0.41999008  0.83199019     0.36600
N1019       N  0.95392895  0.31906718  0.92769419    -0.43600
N1020       N  0.04094820  0.43629036  0.81492019    -0.43600
C1021       C  0.78199812  0.37614467  0.12386840    -0.00100
C1022       C  0.76516137  0.39355235  0.10256719    -0.11900
C1023       C  0.73299481  0.39187734  0.10169783     0.02200
C1024       C  0.71714470  0.37263869  0.12266964    -0.00100
C1025       C  0.73401786  0.35608547  0.14464792    -0.11900
C1026       C  0.76616003  0.35759306  0.14533072     0.02100
H1027       H  0.77721231  0.40823805  0.08632019     0.15100
H1028       H  0.72204993  0.34172994  0.16123799     0.15100
C1029       C  0.78231551  0.34097621  0.16911320     0.36700
C1030       C  0.71682151  0.41113439  0.07999396     0.36600
N1031       N  0.79530249  0.32786786  0.18828435    -0.43600
N1032       N  0.70390971  0.42671108  0.06270267    -0.43600
C1033       C  0.96707223  0.38245470  0.12220289    -0.00100
C1034       C  0.98350484  0.35835377  0.10841849    -0.11900
C1035       C  0.01568161  0.35785852  0.10851777     0.02200
C1036       C  0.03224124  0.38166331  0.12312296    -0.00100
C1037       C  0.01586033  0.40588764  0.13670342    -0.11900
C1038       C  0.98365233  0.40646773  0.13645475     0.02100
H1039       H  0.97117205  0.34000465  0.09702669     0.15100
H1040       H  0.02824498  0.42421487  0.14806999     0.15100
C1041       C  0.96838778  0.43139931  0.15210621     0.36700
C1042       C  0.03097058  0.33333218  0.09220256     0.36600
N1043       N  0.95620901  0.45138504  0.16469823    -0.43600
N1044       N  0.04322685  0.31378583  0.07900147    -0.43600
C1045       C  0.87174682  0.37780083  0.96373154    -0.00100
C1046       C  0.86801587  0.40589172  0.97918151    -0.11900
C1047       C  0.86791955  0.40744048  0.01136361     0.02200
C1048       C  0.87227335  0.38042691  0.02910862    -0.00100
C1049       C  0.87568304  0.35233150  0.01364035    -0.11900
C1050       C  0.87522966  0.35068312  0.98152980     0.02100
H1051       H  0.86479521  0.42688548  0.96610974     0.15100
H1052       H  0.87875502  0.33128498  0.02666076     0.15100
C1053       C  0.87836490  0.32061352  0.96791773     0.36700
C1054       C  0.86246083  0.43706546  0.02518218     0.36600
N1055       N  0.88070249  0.29644500  0.95714884    -0.43600
N1056       N  0.85787728  0.46080967  0.03616525    -0.43600
C1057       C  0.38269332  0.77969204  0.12290435    -0.00100
C1058       C  0.36312521  0.76487129  0.10207237    -0.11900
C1059       C  0.36204708  0.73277968  0.10043246     0.02200
C1060       C  0.38037444  0.71494496  0.12042288    -0.00100
C1061       C  0.39990384  0.72979795  0.14130270    -0.11900
C1062       C  0.40144604  0.76189773  0.14248201     0.02100
H1063       H  0.34866360  0.77845991  0.08693935     0.15100
H1064       H  0.41406475  0.71624405  0.15674501     0.15100
C1065       C  0.42139149  0.77595777  0.16488932     0.36700
C1066       C  0.34098668  0.71881423  0.07900108     0.36600
N1067       N  0.43734328  0.78720216  0.18288924    -0.43600
N1068       N  0.32408642  0.70765981  0.06182777    -0.43600
C1069       C  0.37662113  0.78201677  0.87387373    -0.00100
C1070       C  0.39493189  0.76669211  0.89556259    -0.11900
C1071       C  0.39502171  0.73453636  0.89745059     0.02200
C1072       C  0.37685854  0.71716421  0.87696000    -0.00100
C1073       C  0.35920243  0.73257417  0.85475084    -0.11900
C1074       C  0.35877563  0.76469319  0.85319267     0.02100
H1075       H  0.40887612  0.77992536  0.91139240     0.15100
H1076       H  0.34540995  0.71945656  0.83869985     0.15100
C1077       C  0.34076410  0.77930901  0.82943997     0.36700
C1078       C  0.41475903  0.72001158  0.91984547     0.36600
N1079       N  0.32645560  0.79104279  0.81032613    -0.43600
N1080       N  0.43065432  0.70843267  0.93776102    -0.43600
C1081       C  0.37620261  0.87286605  0.96700023    -0.00100
C1082       C  0.40262091  0.88392686  0.98187977    -0.11900
C1083       C  0.40475581  0.88432254  0.01396717     0.02200
C1084       C  0.38018847  0.87303050  0.03206608    -0.00100
C1085       C  0.35373092  0.86203118  0.01722020    -0.11900
C1086       C  0.35147570  0.86187565  0.98512330     0.02100
H1087       H  0.42162790  0.89289600  0.96839717     0.15100
H1088       H  0.33469922  0.85317694  0.03074667     0.15100
C1089       C  0.32375208  0.84961643  0.97169468     0.36700
C1090       C  0.43191851  0.89770374  0.02745779     0.36600
N1091       N  0.30146097  0.83982946  0.96106281    -0.43600
N1092       N  0.45366105  0.90858177  0.03815737    -0.43600
C1093       C  0.37490556  0.28174260  0.87520954    -0.00100
C1094       C  0.39252168  0.26595749  0.89718676    -0.11900
C1095       C  0.39386541  0.23382624  0.89739318     0.02200
C1096       C  0.37684406  0.21694957  0.87568003    -0.00100
C1097       C  0.35900473  0.23263629  0.85388945    -0.11900
C1098       C  0.35816202  0.26478616  0.85323713     0.02100
H1099       H  0.40540766  0.27879272  0.91419119     0.15100
H1100       H  0.34581559  0.21969088  0.83719869     0.15100
C1101       C  0.33901746  0.27969464  0.83057849     0.36700
C1102       C  0.41177493  0.21866680  0.92089048     0.36600
N1103       N  0.32368083  0.29162769  0.81240959    -0.43600
N1104       N  0.42603108  0.20645346  0.93974463    -0.43600
C1105       C  0.37363106  0.96699501  0.87533902    -0.00100
C1106       C  0.39930471  0.98253277  0.88713404    -0.11900
C1107       C  0.40047540  0.01465128  0.88783547     0.02200
C1108       C  0.37578956  0.03209981  0.87591268    -0.00100
C1109       C  0.34992419  0.01659807  0.86446525    -0.11900
C1110       C  0.34855607  0.98444624  0.86415972     0.02100
H1111       H  0.41842684  0.96951983  0.89642203     0.15100
H1112       H  0.33076264  0.02964743  0.85530600     0.15100
C1113       C  0.32144728  0.97021577  0.85143491     0.36700
C1114       C  0.42669132  0.02889827  0.90227905     0.36600
N1115       N  0.29965300  0.95889127  0.84131226    -0.43600
N1116       N  0.44760578  0.04028154  0.91404266    -0.43600
C1117       C  0.37121879  0.21472276  0.12742698    -0.00100
C1118       C  0.39228617  0.23072681  0.14584058    -0.11900
C1119       C  0.39264167  0.26291482  0.14652562     0.02200
C1120       C  0.37200668  0.27977655  0.12803453    -0.00100
C1121       C  0.35119359  0.26386540  0.10929763    -0.11900
C1122       C  0.35041266  0.23163212  0.10907405     0.02100
H1123       H  0.40855781  0.21802641  0.15977623     0.15100
H1124       H  0.33543347  0.27667631  0.09485501     0.15100
C1125       C  0.32903679  0.21658239  0.08873765     0.36700
C1126       C  0.41537303  0.27807749  0.16527561     0.36600
N1127       N  0.31191059  0.20461990  0.07235521    -0.43600
N1128       N  0.43364501  0.29023014  0.18022274    -0.43600
C1129       C  0.37996727  0.02956651  0.12473800    -0.00100
C1130       C  0.35639028  0.01321507  0.11005065    -0.11900
C1131       C  0.35657439  0.98106939  0.10908648     0.02200
C1132       C  0.38036462  0.96449248  0.12371299    -0.00100
C1133       C  0.40426136  0.98079494  0.13789908    -0.11900
C1134       C  0.40432996  0.01297807  0.13849276     0.02100
H1135       H  0.33797244  0.02562475  0.09872407     0.15100
H1136       H  0.42273100  0.96833325  0.14908751     0.15100
C1137       C  0.42915649  0.02817024  0.15433928     0.36700
C1138       C  0.33294834  0.96581446  0.09154642     0.36600
N1139       N  0.44910915  0.04027716  0.16701112    -0.43600
N1140       N  0.31421201  0.95354683  0.07727989    -0.43600
C1141       C  0.37787872  0.12336629  0.96804564    -0.00100
C1142       C  0.34986705  0.12729471  0.98369027    -0.11900
C1143       C  0.34834841  0.12736324  0.01579455     0.02200
C1144       C  0.37545012  0.12342519  0.03336737    -0.00100
C1145       C  0.40348325  0.11930471  0.01775098    -0.11900
C1146       C  0.40497680  0.11911609  0.98557277     0.02100
H1147       H  0.32881090  0.13058592  0.97081712     0.15100
H1148       H  0.42447670  0.11592134  0.03070235     0.15100
C1149       C  0.43468345  0.11404900  0.97156181     0.36700
C1150       C  0.31850505  0.13199288  0.02964602     0.36600
N1151       N  0.45853069  0.10995483  0.96045672    -0.43600
N1152       N  0.29449998  0.13566016  0.04054990    -0.43600
C1153       C  0.87553417  0.03447583  0.62614258    -0.00100
C1154       C  0.86100953  0.01899746  0.60188898    -0.11900
C1155       C  0.85981547  0.98687056  0.60104463     0.02200
C1156       C  0.87377196  0.96942409  0.62465635    -0.00100
C1157       C  0.88850661  0.98488284  0.64880723    -0.11900
C1158       C  0.88958861  0.01703417  0.64972287     0.02100
H1159       H  0.84986927  0.03206195  0.58381176     0.15100
H1160       H  0.89960861  0.97179087  0.66689113     0.15100
C1161       C  0.90624439  0.03133362  0.67454995     0.36700
C1162       C  0.84274983  0.97259895  0.57648693     0.36600
N1163       N  0.91965700  0.04271717  0.69443897    -0.43600
N1164       N  0.82892887  0.96118817  0.55689837    -0.43600
C1165       C  0.03294466  0.12491622  0.62512431    -0.00100
C1166       C  0.01725980  0.13821821  0.64997850    -0.11900
C1167       C  0.98514166  0.13903673  0.65092170     0.02200
C1168       C  0.96792660  0.12651430  0.62638729    -0.00100
C1169       C  0.98365144  0.11289042  0.60169424    -0.11900
C1170       C  0.01578567  0.11163202  0.60103404     0.02100
H1171       H  0.03016137  0.14842182  0.66866343     0.15100
H1172       H  0.97077892  0.10250259  0.58309860     0.15100
C1173       C  0.03036543  0.09510743  0.57621480     0.36700
C1174       C  0.97073226  0.15356514  0.67706678     0.36600
N1175       N  0.04203249  0.08163198  0.55648088    -0.43600
N1176       N  0.95928673  0.16510849  0.69811999    -0.43600
C1177       C  0.03019727  0.87543725  0.62530197    -0.00100
C1178       C  0.01447682  0.86675469  0.59849164    -0.11900
C1179       C  0.98231792  0.86689608  0.59722234     0.02200
C1180       C  0.96502264  0.87562833  0.62341192    -0.00100
C1181       C  0.98077957  0.88464388  0.65004637    -0.11900
C1182       C  0.01286264  0.88495711  0.65116024     0.02100
H1183       H  0.02732680  0.85958105  0.57837052     0.15100
H1184       H  0.96799564  0.89205799  0.67012359     0.15100
C1185       C  0.02702721  0.89635192  0.67888080     0.36700
C1186       C  0.96803693  0.85754018  0.56879381     0.36600
N1187       N  0.03822584  0.90565519  0.70109303    -0.43600
N1188       N  0.95675153  0.85015936  0.54590298    -0.43600
C1189       C  0.12239409  0.96763631  0.62301844    -0.00100
C1190       C  0.12541979  0.98306545  0.65120869    -0.11900
C1191       C  0.12649107  0.01510125  0.65276813     0.02200
C1192       C  0.12436535  0.03289888  0.62554328    -0.00100
C1193       C  0.12111496  0.01751901  0.59730429    -0.11900
C1194       C  0.12013333  0.98537724  0.59575058     0.02100
H1195       H  0.12727481  0.97006719  0.67242484     0.15100
H1196       H  0.11925099  0.03061398  0.57614628     0.15100
C1197       C  0.11666004  0.97163973  0.56576575     0.36700
C1198       C  0.13018300  0.02862039  0.68282462     0.36600
N1199       N  0.11390162  0.96082404  0.54164941    -0.43600
N1200       N  0.13316738  0.03927544  0.70698172    -0.43600
C1201       C  0.62826928  0.86961221  0.27986604    -0.00100
C1202       C  0.60526973  0.88515686  0.26363860    -0.11900
C1203       C  0.60446394  0.88456380  0.23153361     0.02200
C1204       C  0.62741104  0.86850274  0.21499793    -0.00100
C1205       C  0.65086635  0.85344718  0.23132939    -0.11900
C1206       C  0.65131911  0.85367980  0.26356907     0.02100
H1207       H  0.58769173  0.89767542  0.27616750     0.15100
H1208       H  0.66873807  0.84127513  0.21889980     0.15100
C1209       C  0.67627948  0.83856605  0.27939153     0.36700
C1210       C  0.58039448  0.90157414  0.21625740     0.36600
N1211       N  0.69632113  0.82659838  0.29213581    -0.43600
N1212       N  0.56108065  0.91518527  0.20405037    -0.43600
C1213       C  0.62050281  0.88153167  0.71434831    -0.00100
C1214       C  0.60054628  0.86104214  0.72935851    -0.11900
C1215       C  0.59961388  0.85920953  0.76148150     0.02200
C1216       C  0.61921357  0.87793129  0.77919503    -0.00100
C1217       C  0.63943473  0.89819938  0.76418455    -0.11900
C1218       C  0.64011669  0.90027932  0.73202782     0.02100
H1219       H  0.58565042  0.84631439  0.71589181     0.15100
H1220       H  0.65470969  0.91252969  0.77765046     0.15100
C1221       C  0.66220773  0.92061678  0.71776087     0.36700
C1222       C  0.57949924  0.83682713  0.77559464     0.36600
N1223       N  0.68001234  0.93680232  0.70633356    -0.43600
N1224       N  0.56348640  0.81877072  0.78686051    -0.43600
C1225       C  0.78016126  0.87908650  0.62749644    -0.00100
C1226       C  0.76529078  0.89798833  0.60595326    -0.11900
C1227       C  0.73321329  0.89941055  0.60465668     0.02200
C1228       C  0.71544891  0.88145205  0.62507330    -0.00100
C1229       C  0.73026654  0.86235634  0.64645513    -0.11900
C1230       C  0.76237815  0.86114777  0.64795221     0.02100
H1231       H  0.77881768  0.91166087  0.58998127     0.15100
H1232       H  0.71667634  0.84829757  0.66202443     0.15100
C1233       C  0.77641474  0.84017304  0.66953855     0.36700
C1234       C  0.71915104  0.91814997  0.58110377     0.36600
N1235       N  0.78763149  0.82325240  0.68675145    -0.43600
N1236       N  0.70791472  0.93302693  0.56210791    -0.43600
C1237       C  0.62702997  0.87982148  0.52941456    -0.00100
C1238       C  0.61280749  0.90364861  0.51287180    -0.11900
C1239       C  0.61235530  0.90364921  0.48066932     0.02200
C1240       C  0.62646144  0.87937823  0.46433735    -0.00100
C1241       C  0.64099656  0.85579341  0.48088305    -0.11900
C1242       C  0.64165250  0.85590829  0.51301947     0.02100
H1243       H  0.60138137  0.92208316  0.52515611     0.15100
H1244       H  0.65242608  0.83733987  0.46861188     0.15100
C1245       C  0.65866118  0.83185655  0.52834209     0.36700
C1246       C  0.59616861  0.92818476  0.46520446     0.36600
N1247       N  0.67247626  0.81261788  0.54046306    -0.43600
N1248       N  0.58314949  0.94788333  0.45293151    -0.43600
C1249       C  0.28003158  0.88059844  0.62684860    -0.00100
C1250       C  0.26373792  0.89653048  0.60406120    -0.11900
C1251       C  0.23158307  0.89553888  0.60316827     0.02200
C1252       C  0.21523919  0.87846455  0.62558605    -0.00100
C1253       C  0.23162810  0.86347208  0.64903016    -0.11900
C1254       C  0.26377644  0.86434013  0.64976135     0.02100
H1255       H  0.27620105  0.90948603  0.58670739     0.15100
H1256       H  0.21930486  0.85080446  0.66669142     0.15100
C1257       C  0.27956937  0.84948493  0.67491632     0.36700
C1258       C  0.21596307  0.91323805  0.57978837     0.36600
N1259       N  0.29230376  0.83782314  0.69516014    -0.43600
N1260       N  0.20339840  0.92750904  0.56116533    -0.43600
C1261       C  0.37335582  0.88047068  0.71711637    -0.00100
C1262       C  0.39503319  0.86181146  0.73196055    -0.11900
C1263       C  0.39610022  0.86003296  0.76406243     0.02200
C1264       C  0.37470345  0.87672374  0.78188757    -0.00100
C1265       C  0.35264939  0.89498926  0.76696487    -0.11900
C1266       C  0.35197608  0.89718704  0.73483599     0.02100
H1267       H  0.41135485  0.84871263  0.71838254     0.15100
H1268       H  0.33605745  0.90782243  0.78046466     0.15100
C1269       C  0.32838442  0.91567817  0.72057566     0.36700
C1270       C  0.41867612  0.84009049  0.77801137     0.36600
N1271       N  0.30944267  0.93040478  0.70909773    -0.43600
N1272       N  0.43677580  0.82411902  0.78918216    -0.43600
C1273       C  0.53040637  0.88025717  0.61951202    -0.00100
C1274       C  0.51469976  0.90820962  0.61538945    -0.11900
C1275       C  0.48252932  0.90965067  0.61586254     0.02200
C1276       C  0.46506788  0.88267493  0.62117775    -0.00100
C1277       C  0.48075779  0.85463459  0.62454465    -0.11900
C1278       C  0.51286732  0.85309022  0.62352370     0.02100
H1279       H  0.52756700  0.92920715  0.61159416     0.15100
H1280       H  0.46792036  0.83359182  0.62819052     0.15100
C1281       C  0.52676981  0.82313171  0.62687754     0.36700
C1282       C  0.46840604  0.93911975  0.61002618     0.36600
N1283       N  0.53775647  0.79904436  0.62940711    -0.43600
N1284       N  0.45722781  0.96276381  0.60517351    -0.43600
C1285       C  0.38199623  0.87118918  0.21711652    -0.00100
C1286       C  0.40072064  0.89220278  0.23272776    -0.11900
C1287       C  0.40009274  0.89405465  0.26487642     0.02200
C1288       C  0.38099382  0.87402582  0.28196221    -0.00100
C1289       C  0.36296959  0.85239450  0.26633902    -0.11900
C1290       C  0.36304014  0.85105846  0.23419085     0.02100
H1291       H  0.41538689  0.90769652  0.21971784     0.15100
H1292       H  0.34834790  0.83680917  0.27929279     0.15100
C1293       C  0.34403208  0.82834564  0.21932110     0.36700
C1294       C  0.41976993  0.91618193  0.27974654     0.36600
N1295       N  0.32880150  0.81016429  0.20738689    -0.43600
N1296       N  0.43548262  0.93393743  0.29169826    -0.43600
C1297       C  0.46952077  0.87441600  0.37691645    -0.00100
C1298       C  0.48475202  0.84805841  0.36618038    -0.11900
C1299       C  0.51687095  0.84687654  0.36436842     0.02200
C1300       C  0.53455966  0.87248792  0.37360070    -0.00100
C1301       C  0.51933448  0.89858587  0.38491001    -0.11900
C1302       C  0.48727308  0.89975022  0.38679207     0.02100
H1303       H  0.47151584  0.82848336  0.35840195     0.15100
H1304       H  0.53255222  0.91817199  0.39271215     0.15100
C1305       C  0.47351093  0.92699825  0.39977997     0.36700
C1306       C  0.53075354  0.81950769  0.35179792     0.36600
N1307       N  0.46262011  0.94886246  0.41024882    -0.43600
N1308       N  0.54176721  0.79754227  0.34167573    -0.43600
C1309       C  0.37322560  0.87813708  0.46700171    -0.00100
C1310       C  0.38211357  0.90522771  0.48211138    -0.11900
C1311       C  0.38182623  0.90727408  0.51423873     0.02200
C1312       C  0.37213368  0.88183482  0.53213957    -0.00100
C1313       C  0.36312728  0.85482430  0.51702532    -0.11900
C1314       C  0.36358114  0.85270745  0.48495174     0.02100
H1315       H  0.38989354  0.92485794  0.46881137     0.15100
H1316       H  0.35547299  0.83513568  0.53031351     0.15100
C1317       C  0.35342198  0.82421321  0.47142232     0.36700
C1318       C  0.39269538  0.93543567  0.52793347     0.36600
N1319       N  0.34530138  0.80129411  0.46075255    -0.43600
N1320       N  0.40148456  0.95800962  0.53881252    -0.43600
C1321       C  0.87574251  0.37870638  0.71364835    -0.00100
C1322       C  0.89267093  0.35648838  0.72968504    -0.11900
C1323       C  0.89195521  0.35526285  0.76183486     0.02200
C1324       C  0.87438334  0.37697820  0.77842510    -0.00100
C1325       C  0.85808541  0.39968144  0.76226402    -0.11900
C1326       C  0.85844839  0.40056834  0.73012151     0.02100
H1327       H  0.90608920  0.33974164  0.71702137     0.15100
H1328       H  0.84477398  0.41661645  0.77477156     0.15100
C1329       C  0.84178666  0.42475306  0.71461031     0.36700
C1330       C  0.91022391  0.33211440  0.77709637     0.36600
N1331       N  0.82854258  0.44420384  0.70219311    -0.43600
N1332       N  0.92490699  0.31353170  0.78921952    -0.43600
C1333       C  0.87677137  0.21962013  0.62403574    -0.00100
C1334       C  0.86013432  0.23579779  0.64648344    -0.11900
C1335       C  0.85964135  0.26796829  0.64663245     0.02200
C1336       C  0.87642424  0.28452000  0.62428918    -0.00100
C1337       C  0.89370093  0.26848381  0.60235073    -0.11900
C1338       C  0.89379384  0.23632426  0.60181447     0.02100
H1339       H  0.84716209  0.22326944  0.66378006     0.15100
H1340       H  0.90681931  0.28116576  0.58526540     0.15100
C1341       C  0.91225554  0.22120712  0.57873405     0.36700
C1342       C  0.84269314  0.28347558  0.67059365     0.36600
N1343       N  0.92706202  0.20921235  0.56017296    -0.43600
N1344       N  0.82922953  0.29593221  0.68985375    -0.43600
C1345       C  0.87582978  0.38035858  0.27945020    -0.00100
C1346       C  0.89436870  0.35918935  0.26371974    -0.11900
C1347       C  0.89431291  0.35788272  0.23153276     0.02200
C1348       C  0.87588515  0.37855469  0.21452303    -0.00100
C1349       C  0.85766280  0.39995878  0.23031423    -0.11900
C1350       C  0.85723506  0.40081449  0.26246840     0.02100
H1351       H  0.90867079  0.34336643  0.27664768     0.15100
H1352       H  0.84344425  0.41592855  0.21747149     0.15100
C1353       C  0.83830931  0.42360211  0.27740089     0.36700
C1354       C  0.91410831  0.33581520  0.21662438     0.36600
N1355       N  0.82314093  0.44187896  0.28933891    -0.43600
N1356       N  0.92995758  0.31811053  0.20469669    -0.43600
C1357       C  0.87741146  0.37884643  0.46425587    -0.00100
C1358       C  0.85388873  0.36283079  0.47957754    -0.11900
C1359       C  0.85320861  0.36091714  0.51168845     0.02200
C1360       C  0.87617842  0.37571020  0.52913764    -0.00100
C1361       C  0.89975355  0.39163474  0.51379447    -0.11900
C1362       C  0.90055576  0.39336695  0.48169111     0.02100
H1363       H  0.83630680  0.35117044  0.46639065     0.15100
H1364       H  0.91734475  0.40331709  0.52694780     0.15100
C1365       C  0.92470623  0.41122548  0.46743371     0.36700
C1366       C  0.82953833  0.34241481  0.52592377     0.36600
N1367       N  0.94405542  0.42557557  0.45606738    -0.43600
N1368       N  0.81067115  0.32741626  0.53726330    -0.43600
C1369       C  0.87659418  0.71977904  0.62952071    -0.00100
C1370       C  0.85562315  0.73444859  0.60985301    -0.11900
C1371       C  0.85368347  0.76651471  0.60856866     0.02200
C1372       C  0.87268483  0.78449987  0.62761664    -0.00100
C1373       C  0.89317417  0.76982130  0.64779889    -0.11900
C1374       C  0.89547599  0.73773495  0.64870275     0.02100
H1375       H  0.84085994  0.72077268  0.59518394     0.15100
H1376       H  0.90775013  0.78350394  0.66264012     0.15100
C1377       C  0.91654331  0.72380958  0.67023754     0.36700
C1378       C  0.83124014  0.78031048  0.58837941     0.36600
N1379       N  0.93337048  0.71259905  0.68751847    -0.43600
N1380       N  0.81318858  0.79133818  0.57225942    -0.43600
C1381       C  0.87680203  0.62133398  0.78541878    -0.00100
C1382       C  0.85693139  0.64141953  0.76986908    -0.11900
C1383       C  0.85704286  0.64321369  0.73770752     0.02200
C1384       C  0.87757470  0.62485887  0.72054735    -0.00100
C1385       C  0.89816549  0.60553076  0.73614922    -0.11900
C1386       C  0.89784427  0.60351595  0.76831177     0.02100
H1387       H  0.84110718  0.65561712  0.78290647     0.15100
H1388       H  0.91436059  0.59171977  0.72314753     0.15100
C1389       C  0.92021565  0.58405410  0.78322756     0.36700
C1390       C  0.83682871  0.66501153  0.72292556     0.36600
N1391       N  0.93826815  0.56856063  0.79511913    -0.43600
N1392       N  0.82078653  0.68254420  0.71096974    -0.43600
C1393       C  0.87936910  0.53481171  0.62307940    -0.00100
C1394       C  0.85099955  0.51946410  0.62540398    -0.11900
C1395       C  0.84898949  0.48743112  0.62386974     0.02200
C1396       C  0.87598467  0.46959468  0.62026717    -0.00100
C1397       C  0.90428520  0.48496124  0.61720362    -0.11900
C1398       C  0.90623234  0.51706117  0.61832752     0.02100
H1399       H  0.83002112  0.53250685  0.62863743     0.15100
H1400       H  0.92521266  0.47187079  0.61384268     0.15100
C1401       C  0.93616839  0.53076627  0.61401488     0.36700
C1402       C  0.81874954  0.47394079  0.62636157     0.36600
N1403       N  0.96024209  0.54152010  0.61042329    -0.43600
N1404       N  0.79440282  0.46338668  0.62826845    -0.43600
C1405       C  0.87485924  0.62572492  0.28625415    -0.00100
C1406       C  0.89278445  0.60313941  0.27195322    -0.11900
C1407       C  0.89304204  0.60012929  0.23994172     0.02200
C1408       C  0.87557356  0.62050731  0.22162186    -0.00100
C1409       C  0.85791254  0.64337444  0.23601617    -0.11900
C1410       C  0.85718290  0.64592802  0.26810273     0.02100
H1411       H  0.90645091  0.58759926  0.28590881     0.15100
H1412       H  0.84449273  0.65919334  0.22215403     0.15100
C1413       C  0.83913841  0.67015607  0.28182074     0.36700
C1414       C  0.91229114  0.57665938  0.22655312     0.36600
N1415       N  0.82476209  0.68958335  0.29288980    -0.43600
N1416       N  0.92770459  0.55781747  0.21587107    -0.43600
C1417       C  0.88005545  0.47262855  0.37521169    -0.00100
C1418       C  0.85695807  0.48753366  0.39218902    -0.11900
C1419       C  0.85661959  0.51954048  0.39522977     0.02200
C1420       C  0.87928036  0.53749254  0.38039912    -0.00100
C1421       C  0.90292480  0.52260578  0.36417890    -0.11900
C1422       C  0.90358209  0.49051270  0.36155766     0.02100
H1423       H  0.83935602  0.47407452  0.40366764     0.15100
H1424       H  0.92055328  0.53612392  0.35280598     0.15100
C1425       C  0.92801844  0.47679845  0.34374857     0.36700
C1426       C  0.83367176  0.53319677  0.41496312     0.36600
N1427       N  0.94765976  0.46587036  0.32950909    -0.43600
N1428       N  0.81551138  0.54414320  0.43103252    -0.43600
C1429       C  0.88002172  0.63064068  0.53565237    -0.00100
C1430       C  0.85537136  0.64487773  0.52046047    -0.11900
C1431       C  0.85417477  0.64614928  0.48834572     0.02200
C1432       C  0.87805015  0.63290151  0.47072191    -0.00100
C1433       C  0.90289989  0.61903095  0.48591321    -0.11900
C1434       C  0.90397728  0.61754842  0.51802992     0.02100
H1435       H  0.83702636  0.65529857  0.53373601     0.15100
H1436       H  0.92113569  0.60842806  0.47263667     0.15100
C1437       C  0.92903908  0.60090806  0.53206060     0.36700
C1438       C  0.82859526  0.66194932  0.47426825     0.36600
N1439       N  0.94905387  0.58739424  0.54319926    -0.43600
N1440       N  0.80807428  0.67463795  0.46308018    -0.43600
C1441       C  0.37503193  0.12566169  0.78287769    -0.00100
C1442       C  0.39854897  0.14126114  0.76704116    -0.11900
C1443       C  0.39890050  0.14253013  0.73489493     0.02200
C1444       C  0.37574489  0.12747440  0.71813226    -0.00100
C1445       C  0.35252202  0.11152124  0.73377586    -0.11900
C1446       C  0.35172231  0.11077075  0.76589479     0.02100
H1447       H  0.41656283  0.15276823  0.77981237     0.15100
H1448       H  0.33475902  0.09983288  0.72079571     0.15100
C1449       C  0.32718389  0.09386723  0.78064559     0.36700
C1450       C  0.42377683  0.15842920  0.71958918     0.36600
N1451       N  0.30744072  0.08041226  0.79242544    -0.43600
N1452       N  0.44370178  0.17109464  0.70724868    -0.43600
C1453       C  0.21771407  0.12544013  0.62644323    -0.00100
C1454       C  0.23323626  0.14569194  0.64606057    -0.11900
C1455       C  0.26540068  0.14671374  0.64658433     0.02200
C1456       C  0.28252401  0.12683197  0.62749533    -0.00100
C1457       C  0.26696918  0.10607923  0.60844712    -0.11900
C1458       C  0.23484259  0.10535043  0.60762476     0.02100
H1459       H  0.22017279  0.16098771  0.66079828     0.15100
H1460       H  0.27998888  0.09053824  0.59392661     0.15100
C1461       C  0.22004183  0.08291862  0.58825270     0.36700
C1462       C  0.28021184  0.16745538  0.66775384     0.36600
N1463       N  0.20818438  0.06484975  0.57284037    -0.43600
N1464       N  0.29205827  0.18400196  0.68480077    -0.43600
C1465       C  0.37388528  0.11723595  0.28350304    -0.00100
C1466       C  0.39277740  0.13837419  0.26803033    -0.11900
C1467       C  0.39356374  0.13968318  0.23594242     0.02200
C1468       C  0.37485471  0.11978008  0.21861384    -0.00100
C1469       C  0.35568876  0.09876076  0.23399662    -0.11900
C1470       C  0.35525984  0.09711706  0.26621516     0.02100
H1471       H  0.40706401  0.15401971  0.28111691     0.15100
H1472       H  0.34117702  0.08343291  0.22078699     0.15100
C1473       C  0.33465710  0.07553425  0.28087437     0.36700
C1474       C  0.41278156  0.16260106  0.22145305     0.36600
N1475       N  0.31811940  0.05824932  0.29259719    -0.43600
N1476       N  0.42816940  0.18102331  0.20992108    -0.43600
C1477       C  0.37386484  0.12446826  0.46843084    -0.00100
C1478       C  0.36155832  0.09967514  0.48509309    -0.11900
C1479       C  0.36103144  0.09971062  0.51723885     0.02200
C1480       C  0.37317373  0.12500706  0.53356639    -0.00100
C1481       C  0.38541710  0.14987609  0.51693897    -0.11900
C1482       C  0.38611542  0.14974513  0.48473488     0.02100
H1483       H  0.35189524  0.08023138  0.47295030     0.15100
H1484       H  0.39519206  0.16922617  0.52914507     0.15100
C1485       C  0.40088537  0.17521000  0.46927883     0.36700
C1486       C  0.34700054  0.07379702  0.53264697     0.36600
N1487       N  0.41288159  0.19557767  0.45699508    -0.43600
N1488       N  0.33577176  0.05301225  0.54495400    -0.43600
C1489       C  0.78294447  0.12761294  0.62556430    -0.00100
C1490       C  0.76764082  0.10964913  0.64769312    -0.11900
C1491       C  0.73552448  0.10908615  0.64924452     0.02200
C1492       C  0.71813727  0.12684971  0.62844191    -0.00100
C1493       C  0.73335670  0.14538784  0.60678086    -0.11900
C1494       C  0.76551848  0.14584913  0.60511127     0.02100
H1495       H  0.78082832  0.09594659  0.66382054     0.15100
H1496       H  0.72006492  0.15938729  0.59099545     0.15100
C1497       C  0.78001734  0.16633247  0.58328636     0.36700
C1498       C  0.72098521  0.09134917  0.67334859     0.36600
N1499       N  0.79164637  0.18289479  0.56594255    -0.43600
N1500       N  0.70929835  0.07737174  0.69280550    -0.43600
C1501       C  0.62378385  0.12496856  0.72123535    -0.00100
C1502       C  0.63955478  0.14812581  0.73717386    -0.11900
C1503       C  0.63900729  0.14932588  0.76933157     0.02200
C1504       C  0.62194439  0.12738604  0.78607817    -0.00100
C1505       C  0.60566472  0.10461906  0.77025337    -0.11900
C1506       C  0.60667453  0.10300193  0.73812345     0.02100
H1507       H  0.65259667  0.16522826  0.72446339     0.15100
H1508       H  0.59246513  0.08773056  0.78310708     0.15100
C1509       C  0.58916916  0.07915472  0.72319248     0.36700
C1510       C  0.65521622  0.17388843  0.78455394     0.36600
N1511       N  0.57512529  0.05997990  0.71135605    -0.43600
N1512       N  0.66810320  0.19363630  0.79675217    -0.43600
C1513       C  0.53302052  0.12409216  0.62752844    -0.00100
C1514       C  0.51756225  0.15234787  0.62511042    -0.11900
C1515       C  0.48548204  0.15396479  0.62414222     0.02200
C1516       C  0.46771002  0.12672179  0.62586358    -0.00100
C1517       C  0.48315875  0.09842685  0.62817135    -0.11900
C1518       C  0.51529437  0.09680226  0.62889419     0.02100
H1519       H  0.53057700  0.17355174  0.62374511     0.15100
H1520       H  0.47011284  0.07723853  0.62944913     0.15100
C1521       C  0.52901775  0.06665604  0.63103741     0.36700
C1522       C  0.47189940  0.18409758  0.62109140     0.36600
N1523       N  0.53981580  0.04240601  0.63264190    -0.43600
N1524       N  0.46121327  0.20831970  0.61857247    -0.43600
C1525       C  0.62310802  0.11861953  0.28598211    -0.00100
C1526       C  0.60509618  0.14002441  0.26991277    -0.11900
C1527       C  0.60418773  0.14006948  0.23776872     0.02200
C1528       C  0.62222486  0.11892673  0.22112154    -0.00100
C1529       C  0.64057308  0.09776923  0.23707588    -0.11900
C1530       C  0.64081115  0.09709864  0.26926841     0.02100
H1531       H  0.59134468  0.15654206  0.28253365     0.15100
H1532       H  0.65439609  0.08140562  0.22432484     0.15100
C1533       C  0.65995969  0.07459457  0.28443192     0.36700
C1534       C  0.58526038  0.16260630  0.22240330     0.36600
N1535       N  0.67521390  0.05644318  0.29650548    -0.43600
N1536       N  0.57006674  0.18061792  0.21005698    -0.43600
C1537       C  0.53059261  0.11922058  0.37933592    -0.00100
C1538       C  0.51529291  0.09708455  0.36163997    -0.11900
C1539       C  0.48312854  0.09632801  0.36032148     0.02200
C1540       C  0.46572463  0.11806453  0.37697324    -0.00100
C1541       C  0.48105029  0.13993025  0.39497362    -0.11900
C1542       C  0.51315970  0.14047360  0.39655251     0.02100
H1543       H  0.52851389  0.08074977  0.34827692     0.15100
H1544       H  0.46785839  0.15628030  0.40835864     0.15100
C1545       C  0.52753536  0.16195647  0.41728825     0.36700
C1546       C  0.46868327  0.07391967  0.34066466     0.36600
N1547       N  0.53902789  0.17894568  0.43414016    -0.43600
N1548       N  0.45712295  0.05599018  0.32486785    -0.43600
C1549       C  0.62496572  0.12368927  0.47094063    -0.00100
C1550       C  0.61238934  0.14901336  0.48647490    -0.11900
C1551       C  0.61236275  0.15042084  0.51866095     0.02200
C1552       C  0.62537214  0.12614571  0.53603871    -0.00100
C1553       C  0.63822807  0.10103436  0.52044957    -0.11900
C1554       C  0.63832014  0.09966910  0.48833312     0.02100
H1555       H  0.60196087  0.16754917  0.47346231     0.15100
H1556       H  0.64868899  0.08247572  0.53339792     0.15100
C1557       C  0.65332290  0.07379807  0.47398833     0.36700
C1558       C  0.59771547  0.17648252  0.53305054     0.36600
N1559       N  0.66538458  0.05312079  0.46244673    -0.43600
N1560       N  0.58593362  0.19734175  0.54456318    -0.43600
C1561       C  0.12656564  0.61711163  0.78457201    -0.00100
C1562       C  0.10724097  0.63820163  0.76967118    -0.11900
C1563       C  0.10643016  0.64016320  0.73758020     0.02200
C1564       C  0.12556893  0.62101945  0.71975540    -0.00100
C1565       C  0.14516052  0.60009866  0.73461397    -0.11900
C1566       C  0.14560392  0.59777217  0.76676931     0.02100
H1567       H  0.09259632  0.65318820  0.78319302     0.15100
H1568       H  0.16000881  0.58536911  0.72103061     0.15100
C1569       C  0.16663458  0.57629079  0.78087007     0.36700
C1570       C  0.08680571  0.66298648  0.72358685     0.36600
N1571       N  0.18353113  0.55909579  0.79212104    -0.43600
N1572       N  0.07117254  0.68135808  0.71237656    -0.43600
C1573       C  0.12579076  0.71698453  0.62841143    -0.00100
C1574       C  0.13123593  0.73299337  0.65567695    -0.11900
C1575       C  0.13056557  0.76518458  0.65624489     0.02200
C1576       C  0.12454405  0.78198755  0.62882531    -0.00100
C1577       C  0.11922245  0.76552111  0.60152369    -0.11900
C1578       C  0.11972090  0.73337444  0.60117122     0.02100
H1579       H  0.13581192  0.72024278  0.67667202     0.15100
H1580       H  0.11453406  0.77772521  0.58026181     0.15100
C1581       C  0.11451334  0.71762596  0.57246103     0.36700
C1582       C  0.13652596  0.77997904  0.68530073     0.36600
N1583       N  0.11045301  0.70499031  0.54945458    -0.43600
N1584       N  0.14127076  0.79169587  0.70866618    -0.43600
C1585       C  0.13306751  0.62634175  0.28402353    -0.00100
C1586       C  0.10904245  0.61095089  0.26898430    -0.11900
C1587       C  0.10810139  0.60924774  0.23689872     0.02200
C1588       C  0.13139276  0.62330485  0.21926693    -0.00100
C1589       C  0.15525440  0.63894748  0.23405279    -0.11900
C1590       C  0.15643803  0.64042142  0.26619386     0.02100
H1591       H  0.09089673  0.60015219  0.28233833     0.15100
H1592       H  0.17304072  0.65000352  0.22040915     0.15100
C1593       C  0.18118416  0.65755287  0.28006295     0.36700
C1594       C  0.08225640  0.59426801  0.22250904     0.36600
N1595       N  0.20102083  0.67132768  0.29111271    -0.43600
N1596       N  0.06147710  0.58248130  0.21090496    -0.43600
C1597       C  0.12976526  0.62992435  0.46937636    -0.00100
C1598       C  0.10285501  0.62000693  0.48438002    -0.11900
C1599       C  0.10112951  0.61830440  0.51651798     0.02200
C1600       C  0.12657585  0.62733290  0.53459061    -0.00100
C1601       C  0.15347443  0.63718143  0.51959250    -0.11900
C1602       C  0.15538835  0.63839235  0.48748515     0.02100
H1603       H  0.08319037  0.61279538  0.47094319     0.15100
H1604       H  0.17323463  0.64417012  0.53300818     0.15100
C1605       C  0.18398856  0.64872616  0.47409461     0.36700
C1606       C  0.07339876  0.60588203  0.53001379     0.36600
N1607       N  0.20706701  0.65681416  0.46355714    -0.43600
N1608       N  0.05124351  0.59574955  0.54078303    -0.43600
C1609       C  0.12450754  0.28272663  0.62359296    -0.00100
C1610       C  0.10623557  0.26700491  0.64506035    -0.11900
C1611       C  0.10606680  0.23488813  0.64620298     0.02200
C1612       C  0.12434747  0.21797673  0.62535386    -0.00100
C1613       C  0.14209849  0.23377257  0.60343176    -0.11900
C1614       C  0.14238663  0.26589838  0.60243963     0.02100
H1615       H  0.09214933  0.27990077  0.66111424     0.15100
H1616       H  0.15589977  0.22096381  0.58707308     0.15100
C1617       C  0.15998158  0.28096456  0.57857275     0.36700
C1618       C  0.08585756  0.21996039  0.66800440     0.36600
N1619       N  0.17393658  0.29289655  0.55925470    -0.43600
N1620       N  0.06951932  0.20807574  0.68538748    -0.43600
C1621       C  0.12269155  0.37503838  0.78102813    -0.00100
C1622       C  0.14278223  0.39464074  0.76505963    -0.11900
C1623       C  0.14370143  0.39479933  0.73290510     0.02200
C1624       C  0.12414024  0.37510416  0.71623884    -0.00100
C1625       C  0.10361117  0.35594241  0.73220991    -0.11900
C1626       C  0.10276762  0.35571235  0.76437115     0.02100
H1627       H  0.15782651  0.40986428  0.77775843     0.15100
H1628       H  0.08817961  0.34111052  0.71950884     0.15100
C1629       C  0.08016598  0.33671477  0.77966733     0.36700
C1630       C  0.16365425  0.41654359  0.71759399     0.36600
N1631       N  0.06193236  0.32169697  0.79198294    -0.43600
N1632       N  0.17944853  0.43411368  0.70528792    -0.43600
C1633       C  0.12252754  0.46740878  0.62409088    -0.00100
C1634       C  0.14808800  0.48293011  0.61176261    -0.11900
C1635       C  0.14949221  0.51504477  0.61130289     0.02200
C1636       C  0.12512386  0.53244300  0.62392995    -0.00100
C1637       C  0.09937917  0.51694319  0.63584976    -0.11900
C1638       C  0.09780930  0.48484446  0.63599675     0.02100
H1639       H  0.16694185  0.46993210  0.60194211     0.15100
H1640       H  0.08048825  0.52994034  0.64559860     0.15100
C1641       C  0.07089196  0.47069085  0.64940665     0.36700
C1642       C  0.17563843  0.52930581  0.59652246     0.36600
N1643       N  0.04922433  0.45951620  0.66012956    -0.43600
N1644       N  0.19654474  0.54060301  0.58448329    -0.43600
C1645       C  0.12705910  0.38109802  0.28186601    -0.00100
C1646       C  0.10831047  0.36026146  0.26613283    -0.11900
C1647       C  0.10777887  0.35963096  0.23399070     0.02200
C1648       C  0.12570802  0.38076557  0.21697999    -0.00100
C1649       C  0.14404024  0.40205721  0.23278468    -0.11900
C1650       C  0.14518315  0.40210961  0.26499000     0.02100
H1651       H  0.09424730  0.34414469  0.27905509     0.15100
H1652       H  0.15776113  0.41849495  0.21992751     0.15100
C1653       C  0.16424728  0.42455632  0.28019489     0.36700
C1654       C  0.08785684  0.33773743  0.21911710     0.36600
N1655       N  0.17948979  0.44252348  0.29243862    -0.43600
N1656       N  0.07192579  0.32016526  0.20718967    -0.43600
C1657       C  0.12808856  0.47153037  0.37574250    -0.00100
C1658       C  0.15405515  0.48637868  0.38786223    -0.11900
C1659       C  0.15579572  0.51849570  0.38917580     0.02200
C1660       C  0.13123024  0.53655907  0.37790583    -0.00100
C1661       C  0.10533874  0.52168544  0.36574734    -0.11900
C1662       C  0.10355262  0.48964906  0.36449244     0.02100
H1663       H  0.17294508  0.47284555  0.39686576     0.15100
H1664       H  0.08645025  0.53516624  0.35665380     0.15100
C1665       C  0.07659433  0.47627908  0.35057491     0.36700
C1666       C  0.18257585  0.53204048  0.40325080     0.36600
N1667       N  0.05495677  0.46566268  0.33941114    -0.43600
N1668       N  0.20403774  0.54278032  0.41463465    -0.43600
C1669       C  0.12457040  0.37571230  0.46657606    -0.00100
C1670       C  0.10011156  0.38977491  0.48226726    -0.11900
C1671       C  0.09893928  0.39001023  0.51441679     0.02200
C1672       C  0.12254559  0.37572580  0.53153937    -0.00100
C1673       C  0.14685277  0.36145046  0.51585023    -0.11900
C1674       C  0.14795900  0.36107119  0.48372885     0.02100
H1675       H  0.08213698  0.40127692  0.46937802     0.15100
H1676       H  0.16492553  0.35012999  0.52874685     0.15100
C1677       C  0.17272972  0.34443245  0.46916037     0.36700
C1678       C  0.07405214  0.40637707  0.52907959     0.36600
N1679       N  0.19253585  0.33097692  0.45757401    -0.43600
N1680       N  0.05416036  0.41959277  0.54079442    -0.43600
C1681       C  0.78396271  0.87898760  0.37012089    -0.00100
C1682       C  0.76895287  0.85913232  0.39067428    -0.11900
C1683       C  0.73689664  0.85729055  0.39139118     0.02200
C1684       C  0.71929154  0.87646899  0.37198511    -0.00100
C1685       C  0.73431887  0.89667106  0.35171940    -0.11900
C1686       C  0.76642519  0.89768566  0.35024710     0.02100
H1687       H  0.78234614  0.84461614  0.40585305     0.15100
H1688       H  0.72093412  0.91127750  0.33657896     0.15100
C1689       C  0.78075244  0.91852480  0.32864255     0.36700
C1690       C  0.72276972  0.83595086  0.41264895     0.36600
N1691       N  0.79223675  0.93511302  0.31122957    -0.43600
N1692       N  0.71154233  0.81869292  0.42957278    -0.43600
C1693       C  0.87380924  0.78707025  0.37231526    -0.00100
C1694       C  0.89173584  0.77039647  0.35136319    -0.11900
C1695       C  0.89214021  0.73826307  0.35201956     0.02200
C1696       C  0.87392444  0.72220827  0.37362273    -0.00100
C1697       C  0.85509892  0.73878863  0.39386054    -0.11900
C1698       C  0.85510930  0.77098502  0.39361214     0.02100
H1699       H  0.90592075  0.78253359  0.33474530     0.15100
H1700       H  0.84082605  0.72654785  0.41034069     0.15100
C1701       C  0.83518328  0.78682898  0.41492951     0.36700
C1702       C  0.91076269  0.72225505  0.32970087     0.36600
N1703       N  0.81919629  0.79935493  0.43210762    -0.43600
N1704       N  0.92560912  0.70933390  0.31181692    -0.43600
C1705       C  0.87255501  0.22311967  0.37503777    -0.00100
C1706       C  0.85868653  0.23902536  0.35052691    -0.11900
C1707       C  0.85905436  0.27115235  0.34916363     0.02200
C1708       C  0.87357666  0.28799154  0.37257322    -0.00100
C1709       C  0.88772162  0.27233173  0.39692426    -0.11900
C1710       C  0.88727213  0.24018061  0.39846325     0.02100
H1711       H  0.84756428  0.22631867  0.33223874     0.15100
H1712       H  0.89916124  0.28532075  0.41483575     0.15100
C1713       C  0.90327356  0.22549311  0.42359287     0.36700
C1714       C  0.84585440  0.28630387  0.32272213     0.36600
N1715       N  0.91621342  0.21385902  0.44372766    -0.43600
N1716       N  0.83555357  0.29848874  0.30142127    -0.43600
C1717       C  0.77986980  0.12658871  0.37565626    -0.00100
C1718       C  0.76365907  0.13983916  0.40026356    -0.11900
C1719       C  0.73152736  0.13852454  0.40157443     0.02200
C1720       C  0.71511647  0.12357389  0.37809831    -0.00100
C1721       C  0.73114943  0.10950494  0.35401536    -0.11900
C1722       C  0.76326040  0.11094756  0.35250478     0.02100
H1723       H  0.77607866  0.15147251  0.41840580     0.15100
H1724       H  0.71850143  0.09765100  0.33616312     0.15100
C1725       C  0.77847302  0.09522619  0.32753290     0.36700
C1726       C  0.71589151  0.15159425  0.42778783     0.36600
N1727       N  0.79063014  0.08256313  0.30755231    -0.43600
N1728       N  0.70327129  0.16180567  0.44886287    -0.43600
C1729       C  0.87298037  0.03760133  0.37237811    -0.00100
C1730       C  0.87007506  0.02250093  0.34395016    -0.11900
C1731       C  0.87048420  0.99035251  0.34191298     0.02200
C1732       C  0.87439262  0.97231000  0.36879378    -0.00100
C1733       C  0.87679644  0.98743936  0.39721069    -0.11900
C1734       C  0.87590919  0.01946568  0.39932591     0.02100
H1735       H  0.86723737  0.03582002  0.32304757     0.15100
H1736       H  0.87940948  0.97421198  0.41820053     0.15100
C1737       C  0.87802467  0.03260526  0.42971035     0.36700
C1738       C  0.86617885  0.97690080  0.31191700     0.36600
N1739       N  0.87958727  0.04289820  0.45416241    -0.43600
N1740       N  0.86256843  0.96634436  0.28780112    -0.43600
C1741       C  0.12932987  0.78636604  0.36687324    -0.00100
C1742       C  0.15159337  0.77203026  0.38522790    -0.11900
C1743       C  0.15290807  0.73999897  0.38777084     0.02200
C1744       C  0.13110912  0.72166599  0.37226156    -0.00100
C1745       C  0.10857933  0.73613747  0.35413984    -0.11900
C1746       C  0.10773492  0.76820350  0.35109435     0.02100
H1747       H  0.16812999  0.78596729  0.39755854     0.15100
H1748       H  0.09173178  0.72234883  0.34209347     0.15100
C1749       C  0.08378466  0.78201468  0.33273438     0.36700
C1750       C  0.17625430  0.72675115  0.40725955     0.36600
N1751       N  0.06460528  0.79320869  0.31810181    -0.43600
N1752       N  0.19507695  0.71628359  0.42284707    -0.43600
C1753       C  0.22004152  0.87885422  0.36631353    -0.00100
C1754       C  0.23513755  0.89606526  0.38900534    -0.11900
C1755       C  0.26722512  0.89600935  0.39120024     0.02200
C1756       C  0.28478020  0.87814721  0.37065911    -0.00100
C1757       C  0.26980825  0.86060010  0.34825448    -0.11900
C1758       C  0.23772207  0.86098402  0.34573046     0.02100
H1759       H  0.22180010  0.90965727  0.40510384     0.15100
H1760       H  0.28327782  0.84670737  0.33251784     0.15100
C1761       C  0.22360827  0.84183564  0.32268569     0.36700
C1762       C  0.28152331  0.91331085  0.41558222     0.36600
N1763       N  0.21242317  0.82640795  0.30420441    -0.43600
N1764       N  0.29299481  0.92702844  0.43520613    -0.43600
C1765       C  0.03451198  0.87818471  0.36540942    -0.00100
C1766       C  0.01930220  0.87520305  0.39385408    -0.11900
C1767       C  0.98718217  0.87538451  0.39598795     0.02200
C1768       C  0.96912247  0.87879692  0.36913498    -0.00100
C1769       C  0.98432045  0.88174981  0.34066263    -0.11900
C1770       C  0.01646310  0.88143055  0.33851149     0.02100
H1771       H  0.03252299  0.87253510  0.41477244     0.15100
H1772       H  0.97107486  0.88441663  0.31976082     0.15100
C1773       C  0.02987199  0.88466700  0.30825249     0.36700
C1774       C  0.97380181  0.87151197  0.42617824     0.36600
N1775       N  0.04043539  0.88722745  0.28392578    -0.43600
N1776       N  0.96328323  0.86834535  0.45045257    -0.43600
C1777       C  0.21636621  0.12677818  0.37073038    -0.00100
C1778       C  0.23080809  0.11251611  0.39598359    -0.11900
C1779       C  0.26285507  0.11041206  0.39779533     0.02200
C1780       C  0.28116076  0.12323518  0.37431662    -0.00100
C1781       C  0.26701221  0.13764039  0.34920575    -0.11900
C1782       C  0.23493091  0.13921355  0.34698988     0.02100
H1783       H  0.21702054  0.10273778  0.41439206     0.15100
H1784       H  0.28114550  0.14743792  0.33105468     0.15100
C1785       C  0.22195264  0.15429291  0.32042018     0.36700
C1786       C  0.27644430  0.09596234  0.42445225     0.36600
N1787       N  0.21168322  0.16630111  0.29900358    -0.43600
N1788       N  0.28732407  0.08444111  0.44583544    -0.43600
C1789       C  0.12405452  0.22186011  0.37516682    -0.00100
C1790       C  0.10376624  0.23775670  0.35576439    -0.11900
C1791       C  0.10332390  0.26987942  0.35495298     0.02200
C1792       C  0.12386335  0.28667239  0.37352142    -0.00100
C1793       C  0.14422767  0.27077774  0.39287844    -0.11900
C1794       C  0.14431725  0.23861558  0.39402888     0.02100
H1795       H  0.08822248  0.22498861  0.34110818     0.15100
H1796       H  0.16004746  0.28354214  0.40723513     0.15100
C1797       C  0.16641259  0.22341004  0.41356262     0.36700
C1798       C  0.08256633  0.28491836  0.33384929     0.36600
N1799       N  0.18421368  0.21124940  0.42913763    -0.43600
N1800       N  0.06594317  0.29686969  0.31686806    -0.43600
C1801       C  0.03071038  0.13125554  0.37275989    -0.00100
C1802       C  0.01465280  0.12843011  0.34491266    -0.11900
C1803       C  0.98248180  0.12822390  0.34404043     0.02200
C1804       C  0.96527643  0.13121306  0.37160407    -0.00100
C1805       C  0.98133495  0.13423147  0.39944468    -0.11900
C1806       C  0.01350895  0.13422320  0.40034782     0.02100
H1807       H  0.02725699  0.12595309  0.32352897     0.15100
H1808       H  0.96873200  0.13665017  0.42083951     0.15100
C1809       C  0.02782649  0.13747618  0.43010310     0.36700
C1810       C  0.96815817  0.12422941  0.31439717     0.36600
N1811       N  0.03911921  0.14001282  0.45403234    -0.43600
N1812       N  0.95683316  0.12094665  0.29058005    -0.43600
C1813       C  0.12309610  0.03695620  0.36555836    -0.00100
C1814       C  0.12468543  0.02043709  0.39327507    -0.11900
C1815       C  0.12566162  0.98838329  0.39381534     0.02200
C1816       C  0.12527401  0.97155255  0.36592629    -0.00100
C1817       C  0.12342146  0.98800986  0.33808468    -0.11900
C1818       C  0.12218121  0.02025329  0.33760166     0.02100
H1819       H  0.12527725  0.03259124  0.41498039     0.15100
H1820       H  0.12276456  0.97568944  0.31647661     0.15100
C1821       C  0.11967212  0.03518681  0.30799705     0.36700
C1822       C  0.12706342  0.97387634  0.42370688     0.36600
N1823       N  0.11757141  0.04700942  0.28421368    -0.43600
N1824       N  0.12808676  0.96243084  0.44774036    -0.43600
loop_ 
_geom_bond_atom_site_label_1 
_geom_bond_atom_site_label_2 
_geom_bond_distance 
_geom_bond_site_symmetry_2 
_ccdc_geom_bond_type 
O1           Ni9   1.910       .  S
O1           C11   1.279       .  A
O2           Ni9   1.908       .  S
O2           C12   1.280       .  A
O3           Ni9   1.921       .  S
O3           C13   1.282       .  A
O4           Ni9   1.918       .  S
O4           C14   1.284       .  A
O5          Ni10   1.913       .  S
O5           C14   1.279       .  A
O6          Ni10   1.910       .  S
O6           C13   1.279       .  A
O7          Ni10   1.925       .  S
O7           C12   1.283       .  A
O8          Ni10   1.922       .  S
O8           C11   1.284       .  A
Ni9         Ni10   2.384       .  S
C11        C1801   1.493       .  S
C12        C1777   1.487       .  S
C13        C1789   1.475       .  S
C14        C1813   1.493       .  S
O15         Ni23   1.917       .  S
O15          C25   1.281       .  A
O16         Ni23   1.921       .  S
O16          C26   1.282       .  A
O17         Ni23   1.924       .  S
O17          C27   1.283       .  A
O18         Ni23   1.929       .  S
O18          C28   1.284       .  A
O19         Ni24   1.904       .  S
O19          C28   1.278       .  A
O20         Ni24   1.908       .  S
O20          C27   1.279       .  A
O21         Ni24   1.913       .  S
O21          C26   1.280       .  A
O22         Ni24   1.916       .  S
O22          C25   1.282       .  A
Ni23        Ni24   2.384       .  S
C25        C1765   1.494       .  S
C26        C1753   1.480       .  S
C27        C1741   1.475       .  S
C28        C1816   1.494       .  S
O29         Ni37   1.918       .  S
O29          C39   1.282       .  A
O30         Ni37   1.918       .  S
O30          C40   1.282       .  A
O31         Ni37   1.911       .  S
O31          C41   1.280       .  A
O32         Ni37   1.913       .  S
O32          C42   1.280       .  A
O33         Ni38   1.919       .  S
O33          C42   1.283       .  A
O34         Ni38   1.920       .  S
O34          C41   1.282       .  A
O35         Ni38   1.914       .  S
O35          C40   1.281       .  A
O36         Ni38   1.916       .  S
O36          C39   1.281       .  A
Ni37        Ni38   2.383       .  S
C39        C1705   1.484       .  S
C40        C1729   1.493       .  S
C41        C1717   1.482       .  S
C42        C1804   1.493       .  S
O43         Ni51   1.915       .  S
O43          C53   1.282       .  A
O44         Ni51   1.912       .  S
O44          C54   1.280       .  A
O45         Ni51   1.921       .  S
O45          C55   1.282       .  A
O46         Ni51   1.922       .  S
O46          C56   1.283       .  A
O47         Ni52   1.911       .  S
O47          C56   1.279       .  A
O48         Ni52   1.912       .  S
O48          C55   1.282       .  A
O49         Ni52   1.912       .  S
O49          C54   1.280       .  A
O50         Ni52   1.919       .  S
O50          C53   1.282       .  A
Ni51        Ni52   2.385       .  S
C53        C1768   1.494       .  S
C54        C1681   1.472       .  S
C55        C1732   1.493       .  S
C56        C1693   1.478       .  S
O57         Ni65   1.914       .  S
O57          C67   1.281       .  A
O58         Ni65   1.912       .  S
O58          C68   1.280       .  A
O59         Ni65   1.914       .  S
O59          C69   1.281       .  A
O60         Ni65   1.913       .  S
O60          C70   1.280       .  A
O61         Ni66   1.917       .  S
O61          C70   1.281       .  A
O62         Ni66   1.911       .  S
O62          C69   1.280       .  A
O63         Ni66   1.917       .  S
O63          C68   1.281       .  A
O64         Ni66   1.916       .  S
O64          C67   1.281       .  A
Ni65        Ni66   2.389       .  S
C67        C1657   1.485       .  S
C68        C1792   1.476       .  S
C69        C1669   1.480       .  S
C70        C1645   1.473       .  S
O71         Ni79   1.916       .  S
O71          C81   1.281       .  A
O72         Ni79   1.911       .  S
O72          C82   1.281       .  A
O73         Ni79   1.913       .  S
O73          C83   1.281       .  A
O74         Ni79   1.914       .  S
O74          C84   1.280       .  A
O75         Ni80   1.913       .  S
O75          C84   1.280       .  A
O76         Ni80   1.915       .  S
O76          C83   1.281       .  A
O77         Ni80   1.913       .  S
O77          C82   1.281       .  A
O78         Ni80   1.911       .  S
O78          C81   1.280       .  A
Ni79        Ni80   2.389       .  S
C81        C1624   1.474       .  S
C82        C1672   1.478       .  S
C83        C1633   1.484       .  S
C84        C1609   1.472       .  S
O85         Ni93   1.917       .  S
O85          C95   1.281       .  A
O86         Ni93   1.912       .  S
O86          C96   1.281       .  A
O87         Ni93   1.919       .  S
O87          C97   1.282       .  A
O88         Ni93   1.914       .  S
O88          C98   1.281       .  A
O89         Ni94   1.915       .  S
O89          C98   1.281       .  A
O90         Ni94   1.913       .  S
O90          C97   1.280       .  A
O91         Ni94   1.918       .  S
O91          C96   1.281       .  A
O92         Ni94   1.918       .  S
O92          C95   1.281       .  A
Ni93        Ni94   2.385       .  S
C95        C1744   1.482       .  S
C96        C1660   1.485       .  S
C97        C1597   1.489       .  S
C98        C1585   1.481       .  S
O99        Ni107   1.913       .  S
O99         C109   1.279       .  A
O100       Ni107   1.913       .  S
O100        C110   1.281       .  A
O101       Ni107   1.917       .  S
O101        C111   1.281       .  A
O102       Ni107   1.914       .  S
O102        C112   1.281       .  A
O103       Ni108   1.916       .  S
O103        C112   1.282       .  A
O104       Ni108   1.916       .  S
O104        C111   1.281       .  A
O105       Ni108   1.915       .  S
O105        C110   1.281       .  A
O106       Ni108   1.921       .  S
O106        C109   1.281       .  A
Ni107      Ni108   2.388       .  S
C109       C1573   1.469       .  S
C110       C1636   1.483       .  S
C111       C1564   1.477       .  S
C112       C1600   1.488       .  S
O113       Ni121   1.913       .  S
O113        C123   1.281       .  A
O114       Ni121   1.910       .  S
O114        C124   1.279       .  A
O115       Ni121   1.916       .  S
O115        C125   1.280       .  A
O116       Ni121   1.918       .  S
O116        C126   1.281       .  A
O117       Ni122   1.913       .  S
O117        C126   1.281       .  A
O118       Ni122   1.915       .  S
O118        C125   1.280       .  A
O119       Ni122   1.919       .  S
O119        C124   1.282       .  A
O120       Ni122   1.915       .  S
O120        C123   1.281       .  A
Ni121      Ni122   2.390       .  S
C123       C1549   1.483       .  S
C124       C1525   1.477       .  S
C125       C1720   1.470       .  S
C126       C1537   1.478       .  S
O127       Ni135   1.916       .  S
O127        C137   1.281       .  A
O128       Ni135   1.917       .  S
O128        C138   1.282       .  A
O129       Ni135   1.915       .  S
O129        C139   1.281       .  A
O130       Ni135   1.913       .  S
O130        C140   1.280       .  A
O131       Ni136   1.915       .  S
O131        C140   1.283       .  A
O132       Ni136   1.916       .  S
O132        C139   1.280       .  A
O133       Ni136   1.912       .  S
O133        C138   1.280       .  A
O134       Ni136   1.915       .  S
O134        C137   1.281       .  A
Ni135      Ni136   2.386       .  S
C137       C1501   1.480       .  S
C138       C1552   1.484       .  S
C139       C1492   1.474       .  S
C140       C1513   1.491       .  S
O141       Ni149   1.915       .  S
O141        C151   1.280       .  A
O142       Ni149   1.913       .  S
O142        C152   1.280       .  A
O143       Ni149   1.909       .  S
O143        C153   1.280       .  A
O144       Ni149   1.912       .  S
O144        C154   1.280       .  A
O145       Ni150   1.918       .  S
O145        C154   1.283       .  A
O146       Ni150   1.920       .  S
O146        C153   1.282       .  A
O147       Ni150   1.919       .  S
O147        C152   1.282       .  A
O148       Ni150   1.917       .  S
O148        C151   1.281       .  A
Ni149      Ni150   2.389       .  S
C151       C1780   1.472       .  S
C152       C1540   1.478       .  S
C153       C1465   1.478       .  S
C154       C1477   1.484       .  S
O155       Ni163   1.914       .  S
O155        C165   1.281       .  A
O156       Ni163   1.918       .  S
O156        C166   1.283       .  A
O157       Ni163   1.908       .  S
O157        C167   1.279       .  A
O158       Ni163   1.907       .  S
O158        C168   1.279       .  A
O159       Ni164   1.920       .  S
O159        C168   1.283       .  A
O160       Ni164   1.915       .  S
O160        C167   1.280       .  A
O161       Ni164   1.910       .  S
O161        C166   1.280       .  A
O162       Ni164   1.915       .  S
O162        C165   1.281       .  A
Ni163      Ni164   2.387       .  S
C165       C1456   1.476       .  S
C166       C1516   1.491       .  S
C167       C1444   1.467       .  S
C168       C1480   1.483       .  S
O169       Ni177   1.917       .  S
O169        C179   1.281       .  A
O170       Ni177   1.920       .  S
O170        C180   1.283       .  A
O171       Ni177   1.910       .  S
O171        C181   1.280       .  A
O172       Ni177   1.916       .  S
O172        C182   1.281       .  A
O173       Ni178   1.912       .  S
O173        C182   1.280       .  A
O174       Ni178   1.916       .  S
O174        C181   1.282       .  A
O175       Ni178   1.915       .  S
O175        C180   1.280       .  A
O176       Ni178   1.916       .  S
O176        C179   1.281       .  A
Ni177      Ni178   2.390       .  S
C179       C1696   1.476       .  S
C180       C1420   1.483       .  S
C181       C1432   1.479       .  S
C182       C1405   1.471       .  S
O183       Ni191   1.908       .  S
O183        C193   1.279       .  A
O184       Ni191   1.911       .  S
O184        C194   1.281       .  A
O185       Ni191   1.917       .  S
O185        C195   1.281       .  A
O186       Ni191   1.912       .  S
O186        C196   1.281       .  A
O187       Ni192   1.914       .  S
O187        C196   1.281       .  A
O188       Ni192   1.916       .  S
O188        C195   1.280       .  A
O189       Ni192   1.919       .  S
O189        C194   1.282       .  A
O190       Ni192   1.922       .  S
O190        C193   1.283       .  A
Ni191      Ni192   2.387       .  S
C193       C1369   1.476       .  S
C194       C1393   1.492       .  S
C195       C1384   1.478       .  S
C196       C1429   1.479       .  S
O197       Ni205   1.918       .  S
O197        C207   1.281       .  A
O198       Ni205   1.917       .  S
O198        C208   1.282       .  A
O199       Ni205   1.913       .  S
O199        C209   1.280       .  A
O200       Ni205   1.913       .  S
O200        C210   1.281       .  A
O201       Ni206   1.912       .  S
O201        C210   1.280       .  A
O202       Ni206   1.918       .  S
O202        C209   1.281       .  A
O203       Ni206   1.919       .  S
O203        C208   1.281       .  A
O204       Ni206   1.915       .  S
O204        C207   1.280       .  A
Ni205      Ni206   2.388       .  S
C207       C1708   1.472       .  S
C208       C1417   1.485       .  S
C209       C1345   1.476       .  S
C210       C1357   1.478       .  S
O211       Ni219   1.916       .  S
O211        C221   1.281       .  A
O212       Ni219   1.912       .  S
O212        C222   1.281       .  A
O213       Ni219   1.917       .  S
O213        C223   1.282       .  A
O214       Ni219   1.915       .  S
O214        C224   1.281       .  A
O215       Ni220   1.917       .  S
O215        C224   1.281       .  A
O216       Ni220   1.915       .  S
O216        C223   1.281       .  A
O217       Ni220   1.913       .  S
O217        C222   1.281       .  A
O218       Ni220   1.909       .  S
O218        C221   1.279       .  A
Ni219      Ni220   2.388       .  S
C221       C1321   1.470       .  S
C222       C1360   1.478       .  S
C223       C1396   1.492       .  S
C224       C1336   1.474       .  S
O225       Ni233   1.914       .  S
O225        C235   1.280       .  A
O226       Ni233   1.911       .  S
O226        C236   1.280       .  A
O227       Ni233   1.918       .  S
O227        C237   1.282       .  A
O228       Ni233   1.914       .  S
O228        C238   1.281       .  A
O229       Ni234   1.915       .  S
O229        C238   1.281       .  A
O230       Ni234   1.912       .  S
O230        C237   1.280       .  A
O231       Ni234   1.918       .  S
O231        C236   1.282       .  A
O232       Ni234   1.916       .  S
O232        C235   1.281       .  A
Ni233      Ni234   2.387       .  S
C235       C1756   1.473       .  S
C236       C1297   1.485       .  S
C237       C1288   1.478       .  S
C238       C1309   1.487       .  S
O239       Ni247   1.916       .  S
O239        C249   1.281       .  A
O240       Ni247   1.914       .  S
O240        C250   1.282       .  A
O241       Ni247   1.910       .  S
O241        C251   1.279       .  A
O242       Ni247   1.911       .  S
O242        C252   1.281       .  A
O243       Ni248   1.915       .  S
O243        C252   1.281       .  A
O244       Ni248   1.920       .  S
O244        C251   1.282       .  A
O245       Ni248   1.918       .  S
O245        C250   1.281       .  A
O246       Ni248   1.915       .  S
O246        C249   1.280       .  A
Ni247      Ni248   2.387       .  S
C249       C1249   1.472       .  S
C250       C1276   1.492       .  S
C251       C1261   1.473       .  S
C252       C1312   1.486       .  S
O253       Ni261   1.911       .  S
O253        C263   1.280       .  A
O254       Ni261   1.913       .  S
O254        C264   1.281       .  A
O255       Ni261   1.913       .  S
O255        C265   1.280       .  A
O256       Ni261   1.912       .  S
O256        C266   1.280       .  A
O257       Ni262   1.919       .  S
O257        C266   1.283       .  A
O258       Ni262   1.916       .  S
O258        C265   1.281       .  A
O259       Ni262   1.917       .  S
O259        C264   1.282       .  A
O260       Ni262   1.921       .  S
O260        C263   1.282       .  A
Ni261      Ni262   2.387       .  S
C263       C1213   1.477       .  S
C264       C1237   1.482       .  S
C265       C1228   1.473       .  S
C266       C1273   1.492       .  S
O267       Ni275   1.914       .  S
O267        C277   1.282       .  A
O268       Ni275   1.917       .  S
O268        C278   1.281       .  A
O269       Ni275   1.909       .  S
O269        C279   1.279       .  A
O270       Ni275   1.916       .  S
O270        C280   1.281       .  A
O271       Ni276   1.912       .  S
O271        C280   1.281       .  A
O272       Ni276   1.915       .  S
O272        C279   1.281       .  A
O273       Ni276   1.912       .  S
O273        C278   1.280       .  A
O274       Ni276   1.914       .  S
O274        C277   1.280       .  A
Ni275      Ni276   2.389       .  S
C277       C1240   1.481       .  S
C278       C1201   1.471       .  S
C279       C1684   1.473       .  S
C280       C1300   1.484       .  S
O281       Ni289   1.912       .  S
O281        C291   1.280       .  A
O282       Ni289   1.911       .  S
O282        C292   1.281       .  A
O283       Ni289   1.911       .  S
O283        C293   1.280       .  A
O284       Ni289   1.914       .  S
O284        C294   1.281       .  A
O285       Ni290   1.915       .  S
O285        C294   1.281       .  A
O286       Ni290   1.916       .  S
O286        C293   1.281       .  A
O287       Ni290   1.918       .  S
O287        C292   1.281       .  A
O288       Ni290   1.922       .  S
O288        C291   1.284       .  A
Ni289      Ni290   2.383       .  S
C291       C1576   1.493       .  S
C292       C1189   1.491       .  S
C293       C1177   1.487       .  S
C294       C1252   1.479       .  S
O295       Ni303   1.912       .  S
O295        C305   1.281       .  A
O296       Ni303   1.916       .  S
O296        C306   1.281       .  A
O297       Ni303   1.912       .  S
O297        C307   1.280       .  A
O298       Ni303   1.914       .  S
O298        C308   1.281       .  A
O299       Ni304   1.913       .  S
O299        C308   1.281       .  A
O300       Ni304   1.916       .  S
O300        C307   1.281       .  A
O301       Ni304   1.914       .  S
O301        C306   1.281       .  A
O302       Ni304   1.915       .  S
O302        C305   1.281       .  A
Ni303      Ni304   2.387       .  S
C305       C1165   1.481       .  S
C306       C1453   1.475       .  S
C307       C1612   1.476       .  S
C308       C1192   1.491       .  S
O309       Ni317   1.910       .  S
O309        C319   1.280       .  A
O310       Ni317   1.909       .  S
O310        C320   1.279       .  A
O311       Ni317   1.920       .  S
O311        C321   1.282       .  A
O312       Ni317   1.918       .  S
O312        C322   1.282       .  A
O313       Ni318   1.915       .  S
O313        C322   1.281       .  A
O314       Ni318   1.914       .  S
O314        C321   1.280       .  A
O315       Ni318   1.918       .  S
O315        C320   1.282       .  A
O316       Ni318   1.921       .  S
O316        C319   1.282       .  A
Ni317      Ni318   2.387       .  S
C319       C1489   1.478       .  S
C320       C1168   1.483       .  S
C321       C1333   1.482       .  S
C322       C1153   1.484       .  S
O323       Ni331   1.912       .  S
O323        C333   1.280       .  A
O324       Ni331   1.909       .  S
O324        C334   1.279       .  A
O325       Ni331   1.917       .  S
O325        C335   1.281       .  A
O326       Ni331   1.919       .  S
O326        C336   1.282       .  A
O327       Ni332   1.913       .  S
O327        C336   1.280       .  A
O328       Ni332   1.916       .  S
O328        C335   1.281       .  A
O329       Ni332   1.919       .  S
O329        C334   1.282       .  A
O330       Ni332   1.913       .  S
O330        C333   1.282       .  A
Ni331      Ni332   2.387       .  S
C333       C1180   1.486       .  S
C334       C1225   1.475       .  S
C335       C1156   1.484       .  S
C336       C1372   1.477       .  S
O337       Ni345   1.917       .  S
O337        C347   1.281       .  A
O338       Ni345   1.916       .  S
O338        C348   1.281       .  A
O339       Ni345   1.919       .  S
O339        C349   1.283       .  A
O340       Ni345   1.914       .  S
O340        C350   1.281       .  A
O341       Ni346   1.916       .  S
O341        C350   1.280       .  A
O342       Ni346   1.909       .  S
O342        C349   1.279       .  A
O343       Ni346   1.919       .  S
O343        C348   1.282       .  A
O344       Ni346   1.926       .  S
O344        C347   1.283       .  A
Ni345      Ni346   2.386       .  S
C347       C1117   1.484       .  S
C348       C1129   1.485       .  S
C349       C1144   1.490       .  S
C350       C1468   1.476       .  S
O351       Ni359   1.914       .  S
O351        C361   1.282       .  A
O352       Ni359   1.909       .  S
O352        C362   1.280       .  A
O353       Ni359   1.915       .  S
O353        C363   1.281       .  A
O354       Ni359   1.915       .  S
O354        C364   1.280       .  A
O355       Ni360   1.916       .  S
O355        C364   1.281       .  A
O356       Ni360   1.917       .  S
O356        C363   1.282       .  A
O357       Ni360   1.914       .  S
O357        C362   1.281       .  A
O358       Ni360   1.911       .  S
O358        C361   1.280       .  A
Ni359      Ni360   2.387       .  S
C361       C1141   1.489       .  S
C362       C1441   1.478       .  S
C363       C1108   1.485       .  S
C364       C1096   1.473       .  S
O365       Ni373   1.918       .  S
O365        C375   1.281       .  A
O366       Ni373   1.917       .  S
O366        C376   1.282       .  A
O367       Ni373   1.910       .  S
O367        C377   1.281       .  A
O368       Ni373   1.914       .  S
O368        C378   1.281       .  A
O369       Ni374   1.915       .  S
O369        C378   1.281       .  A
O370       Ni374   1.918       .  S
O370        C377   1.282       .  A
O371       Ni374   1.914       .  S
O371        C376   1.280       .  A
O372       Ni374   1.917       .  S
O372        C375   1.281       .  A
Ni373      Ni374   2.387       .  S
C375       C1069   1.476       .  S
C376       C1105   1.486       .  S
C377       C1081   1.485       .  S
C378       C1264   1.478       .  S
O379       Ni387   1.908       .  S
O379        C389   1.280       .  A
O380       Ni387   1.914       .  S
O380        C390   1.280       .  A
O381       Ni387   1.916       .  S
O381        C391   1.282       .  A
O382       Ni387   1.913       .  S
O382        C392   1.280       .  A
O383       Ni388   1.919       .  S
O383        C392   1.281       .  A
O384       Ni388   1.916       .  S
O384        C391   1.281       .  A
O385       Ni388   1.918       .  S
O385        C390   1.281       .  A
O386       Ni388   1.919       .  S
O386        C389   1.282       .  A
Ni387      Ni388   2.388       .  S
C389       C1084   1.484       .  S
C390       C1285   1.476       .  S
C391       C1132   1.483       .  S
C392       C1057   1.475       .  S
O393       Ni401   1.914       .  S
O393        C403   1.280       .  A
O394       Ni401   1.917       .  S
O394        C404   1.283       .  A
O395       Ni401   1.917       .  S
O395        C405   1.282       .  A
O396       Ni401   1.917       .  S
O396        C406   1.281       .  A
O397       Ni402   1.918       .  S
O397        C406   1.281       .  A
O398       Ni402   1.919       .  S
O398        C405   1.282       .  A
O399       Ni402   1.914       .  S
O399        C404   1.280       .  A
O400       Ni402   1.916       .  S
O400        C403   1.281       .  A
Ni401      Ni402   2.386       .  S
C403       C1348   1.479       .  S
C404       C1048   1.492       .  S
C405       C1033   1.486       .  S
C406       C1021   1.477       .  S
O407       Ni415   1.915       .  S
O407        C417   1.281       .  A
O408       Ni415   1.918       .  S
O408        C418   1.281       .  A
O409       Ni415   1.914       .  S
O409        C419   1.281       .  A
O410       Ni415   1.908       .  S
O410        C420   1.279       .  A
O411       Ni416   1.921       .  S
O411        C420   1.283       .  A
O412       Ni416   1.913       .  S
O412        C419   1.281       .  A
O413       Ni416   1.922       .  S
O413        C418   1.282       .  A
O414       Ni416   1.923       .  S
O414        C417   1.282       .  A
Ni415      Ni416   2.387       .  S
C417       C1009   1.482       .  S
C418        C997   1.481       .  S
C419       C1324   1.477       .  S
C420       C1045   1.492       .  S
O421       Ni429   1.911       .  S
O421        C431   1.282       .  A
O422       Ni429   1.916       .  S
O422        C432   1.281       .  A
O423       Ni429   1.910       .  S
O423        C433   1.280       .  A
O424       Ni429   1.910       .  S
O424        C434   1.279       .  A
O425       Ni430   1.918       .  S
O425        C434   1.281       .  A
O426       Ni430   1.923       .  S
O426        C433   1.283       .  A
O427       Ni430   1.916       .  S
O427        C432   1.281       .  A
O428       Ni430   1.918       .  S
O428        C431   1.281       .  A
Ni429      Ni430   2.387       .  S
C431        C985   1.492       .  S
C432       C1648   1.479       .  S
C433       C1036   1.484       .  S
C434        C976   1.473       .  S
O435       Ni443   1.918       .  S
O435        C445   1.282       .  A
O436       Ni443   1.921       .  S
O436        C446   1.282       .  A
O437       Ni443   1.920       .  S
O437        C447   1.283       .  A
O438       Ni443   1.912       .  S
O438        C448   1.280       .  A
O439       Ni444   1.913       .  S
O439        C448   1.281       .  A
O440       Ni444   1.911       .  S
O440        C447   1.280       .  A
O441       Ni444   1.915       .  S
O441        C446   1.281       .  A
O442       Ni444   1.917       .  S
O442        C445   1.281       .  A
Ni443      Ni444   2.387       .  S
C445        C964   1.482       .  S
C446       C1012   1.481       .  S
C447        C988   1.493       .  S
C448       C1621   1.473       .  S
O449       Ni457   1.916       .  S
O449        C459   1.281       .  A
O450       Ni457   1.918       .  S
O450        C460   1.281       .  A
O451       Ni457   1.921       .  S
O451        C461   1.282       .  A
O452       Ni457   1.922       .  S
O452        C462   1.283       .  A
O453       Ni458   1.911       .  S
O453        C462   1.280       .  A
O454       Ni458   1.909       .  S
O454        C461   1.280       .  A
O455       Ni458   1.915       .  S
O455        C460   1.281       .  A
O456       Ni458   1.916       .  S
O456        C459   1.282       .  A
Ni457      Ni458   2.386       .  S
C459        C925   1.484       .  S
C460        C937   1.480       .  S
C461       C1204   1.480       .  S
C462        C949   1.488       .  S
O463       Ni471   1.912       .  S
O463        C473   1.280       .  A
O464       Ni471   1.910       .  S
O464        C474   1.280       .  A
O465       Ni471   1.914       .  S
O465        C475   1.282       .  A
O466       Ni471   1.917       .  S
O466        C476   1.281       .  A
O467       Ni472   1.916       .  S
O467        C476   1.281       .  A
O468       Ni472   1.919       .  S
O468        C475   1.281       .  A
O469       Ni472   1.921       .  S
O469        C474   1.283       .  A
O470       Ni472   1.921       .  S
O470        C473   1.282       .  A
Ni471      Ni472   2.387       .  S
C473        C901   1.480       .  S
C474        C916   1.485       .  S
C475        C952   1.489       .  S
C476       C1216   1.478       .  S
O477       Ni485   1.913       .  S
O477        C487   1.280       .  A
O478       Ni485   1.917       .  S
O478        C488   1.281       .  A
O479       Ni485   1.915       .  S
O479        C489   1.280       .  A
O480       Ni485   1.912       .  S
O480        C490   1.281       .  A
O481       Ni486   1.919       .  S
O481        C490   1.282       .  A
O482       Ni486   1.915       .  S
O482        C489   1.280       .  A
O483       Ni486   1.911       .  S
O483        C488   1.281       .  A
O484       Ni486   1.917       .  S
O484        C487   1.280       .  A
Ni485      Ni486   2.388       .  S
C487        C877   1.469       .  S
C488        C913   1.484       .  S
C489       C1504   1.473       .  S
C490        C889   1.487       .  S
O491       Ni499   1.916       .  S
O491        C501   1.281       .  A
O492       Ni499   1.912       .  S
O492        C502   1.280       .  A
O493       Ni499   1.921       .  S
O493        C503   1.283       .  A
O494       Ni499   1.915       .  S
O494        C504   1.280       .  A
O495       Ni500   1.913       .  S
O495        C504   1.280       .  A
O496       Ni500   1.910       .  S
O496        C503   1.280       .  A
O497       Ni500   1.922       .  S
O497        C502   1.283       .  A
O498       Ni500   1.922       .  S
O498        C501   1.282       .  A
Ni499      Ni500   2.389       .  S
C501        C865   1.480       .  S
C502        C940   1.480       .  S
C503        C892   1.486       .  S
C504       C1528   1.473       .  S
O505       Ni513   1.910       .  S
O505        C515   1.281       .  A
O506       Ni513   1.914       .  S
O506        C516   1.280       .  A
O507       Ni513   1.915       .  S
O507        C517   1.282       .  A
O508       Ni513   1.919       .  S
O508        C518   1.282       .  A
O509       Ni514   1.914       .  S
O509        C518   1.280       .  A
O510       Ni514   1.916       .  S
O510        C517   1.281       .  A
O511       Ni514   1.914       .  S
O511        C516   1.280       .  A
O512       Ni514   1.918       .  S
O512        C515   1.282       .  A
Ni513      Ni514   2.389       .  S
C515        C856   1.484       .  S
C516       C1588   1.469       .  S
C517        C841   1.486       .  S
C518        C832   1.475       .  S
O519       Ni527   1.911       .  S
O519        C529   1.280       .  A
O520       Ni527   1.906       .  S
O520        C530   1.279       .  A
O521       Ni527   1.913       .  S
O521        C531   1.281       .  A
O522       Ni527   1.915       .  S
O522        C532   1.281       .  A
O523       Ni528   1.915       .  S
O523        C532   1.280       .  A
O524       Ni528   1.918       .  S
O524        C531   1.282       .  A
O525       Ni528   1.922       .  S
O525        C530   1.282       .  A
O526       Ni528   1.921       .  S
O526        C529   1.282       .  A
Ni527      Ni528   2.388       .  S
C529        C805   1.476       .  S
C530        C820   1.481       .  S
C531        C853   1.485       .  S
C532       C1561   1.477       .  S
O533       Ni541   1.912       .  S
O533        C543   1.280       .  A
O534       Ni541   1.920       .  S
O534        C544   1.282       .  A
O535       Ni541   1.920       .  S
O535        C545   1.282       .  A
O536       Ni541   1.925       .  S
O536        C546   1.284       .  A
O537       Ni542   1.910       .  S
O537        C546   1.280       .  A
O538       Ni542   1.915       .  S
O538        C545   1.280       .  A
O539       Ni542   1.914       .  S
O539        C544   1.281       .  A
O540       Ni542   1.915       .  S
O540        C543   1.281       .  A
Ni541      Ni542   2.386       .  S
C543        C817   1.481       .  S
C544        C781   1.480       .  S
C545       C1381   1.477       .  S
C546        C793   1.494       .  S
O547       Ni555   1.915       .  S
O547        C557   1.281       .  A
O548       Ni555   1.921       .  S
O548        C558   1.282       .  A
O549       Ni555   1.915       .  S
O549        C559   1.281       .  A
O550       Ni555   1.916       .  S
O550        C560   1.281       .  A
O551       Ni556   1.915       .  S
O551        C560   1.280       .  A
O552       Ni556   1.917       .  S
O552        C559   1.282       .  A
O553       Ni556   1.913       .  S
O553        C558   1.282       .  A
O554       Ni556   1.915       .  S
O554        C557   1.281       .  A
Ni555      Ni556   2.386       .  S
C557       C1408   1.478       .  S
C558        C796   1.493       .  S
C559        C844   1.486       .  S
C560        C769   1.474       .  S
O561       Ni569   1.916       .  S
O561        C571   1.281       .  A
O562       Ni569   1.916       .  S
O562        C572   1.281       .  A
O563       Ni569   1.922       .  S
O563        C573   1.282       .  A
O564       Ni569   1.918       .  S
O564        C574   1.282       .  A
O565       Ni570   1.919       .  S
O565        C574   1.282       .  A
O566       Ni570   1.919       .  S
O566        C573   1.281       .  A
O567       Ni570   1.910       .  S
O567        C572   1.279       .  A
O568       Ni570   1.911       .  S
O568        C571   1.282       .  A
Ni569      Ni570   2.387       .  S
C571        C745   1.491       .  S
C572        C973   1.474       .  S
C573       C1120   1.480       .  S
C574        C760   1.485       .  S
O575       Ni583   1.918       .  S
O575        C585   1.281       .  A
O576       Ni583   1.917       .  S
O576        C586   1.282       .  A
O577       Ni583   1.917       .  S
O577        C587   1.281       .  A
O578       Ni583   1.918       .  S
O578        C588   1.282       .  A
O579       Ni584   1.911       .  S
O579        C588   1.280       .  A
O580       Ni584   1.913       .  S
O580        C587   1.280       .  A
O581       Ni584   1.917       .  S
O581        C586   1.281       .  A
O582       Ni584   1.913       .  S
O582        C585   1.280       .  A
Ni583      Ni584   2.387       .  S
C585       C1060   1.477       .  S
C586        C757   1.484       .  S
C587        C829   1.477       .  S
C588        C733   1.488       .  S
O589       Ni597   1.912       .  S
O589        C599   1.280       .  A
O590       Ni597   1.915       .  S
O590        C600   1.280       .  A
O591       Ni597   1.918       .  S
O591        C601   1.281       .  A
O592       Ni597   1.920       .  S
O592        C602   1.283       .  A
O593       Ni598   1.911       .  S
O593        C602   1.280       .  A
O594       Ni598   1.912       .  S
O594        C601   1.280       .  A
O595       Ni598   1.913       .  S
O595        C600   1.282       .  A
O596       Ni598   1.920       .  S
O596        C599   1.282       .  A
Ni597      Ni598   2.386       .  S
C599        C772   1.481       .  S
C600        C736   1.488       .  S
C601        C928   1.471       .  S
C602        C721   1.491       .  S
O603       Ni611   1.918       .  S
O603        C613   1.281       .  A
O604       Ni611   1.917       .  S
O604        C614   1.282       .  A
O605       Ni611   1.917       .  S
O605        C615   1.281       .  A
O606       Ni611   1.915       .  S
O606        C616   1.282       .  A
O607       Ni612   1.916       .  S
O607        C616   1.281       .  A
O608       Ni612   1.921       .  S
O608        C615   1.282       .  A
O609       Ni612   1.911       .  S
O609        C614   1.280       .  A
O610       Ni612   1.919       .  S
O610        C613   1.281       .  A
Ni611      Ni612   2.385       .  S
C613       C1024   1.481       .  S
C614        C748   1.491       .  S
C615        C868   1.481       .  S
C616        C724   1.491       .  S
O617       Ni625   1.915       .  S
O617        C627   1.281       .  A
O618       Ni625   1.909       .  S
O618        C628   1.280       .  A
O619       Ni625   1.912       .  S
O619        C629   1.280       .  A
O620       Ni625   1.915       .  S
O620        C630   1.282       .  A
O621       Ni626   1.917       .  S
O621        C630   1.281       .  A
O622       Ni626   1.920       .  S
O622        C629   1.282       .  A
O623       Ni626   1.920       .  S
O623        C628   1.282       .  A
O624       Ni626   1.920       .  S
O624        C627   1.282       .  A
Ni625      Ni626   2.385       .  S
C627       C1072   1.480       .  S
C628        C697   1.489       .  S
C629        C808   1.479       .  S
C630        C709   1.490       .  S
O631       Ni639   1.919       .  S
O631        C641   1.282       .  A
O632       Ni639   1.914       .  S
O632        C642   1.280       .  A
O633       Ni639   1.918       .  S
O633        C643   1.281       .  A
O634       Ni639   1.910       .  S
O634        C644   1.280       .  A
O635       Ni640   1.919       .  S
O635        C644   1.282       .  A
O636       Ni640   1.918       .  S
O636        C643   1.281       .  A
O637       Ni640   1.916       .  S
O637        C642   1.282       .  A
O638       Ni640   1.916       .  S
O638        C641   1.281       .  A
Ni639      Ni640   2.386       .  S
C641        C784   1.478       .  S
C642        C712   1.490       .  S
C643        C904   1.476       .  S
C644        C685   1.489       .  S
O645       Ni653   1.928       .  S
O645        C655   1.283       .  A
O646       Ni653   1.926       .  S
O646        C656   1.283       .  A
O647       Ni653   1.910       .  S
O647        C657   1.279       .  A
O648       Ni653   1.917       .  S
O648        C658   1.281       .  A
O649       Ni654   1.913       .  S
O649        C658   1.282       .  A
O650       Ni654   1.921       .  S
O650        C657   1.283       .  A
O651       Ni654   1.914       .  S
O651        C656   1.280       .  A
O652       Ni654   1.916       .  S
O652        C655   1.280       .  A
Ni653      Ni654   2.385       .  S
C655       C1000   1.484       .  S
C656        C673   1.481       .  S
C657        C880   1.488       .  S
C658        C688   1.490       .  S
O659       Ni667   1.916       .  S
O659        C669   1.281       .  A
O660       Ni667   1.908       .  S
O660        C670   1.281       .  A
O661       Ni667   1.919       .  S
O661        C671   1.282       .  A
O662       Ni667   1.918       .  S
O662        C672   1.281       .  A
O663       Ni668   1.918       .  S
O663        C672   1.281       .  A
O664       Ni668   1.917       .  S
O664        C671   1.281       .  A
O665       Ni668   1.921       .  S
O665        C670   1.282       .  A
O666       Ni668   1.915       .  S
O666        C669   1.281       .  A
Ni667      Ni668   2.388       .  S
C669       C1093   1.478       .  S
C670        C700   1.490       .  S
C671        C676   1.480       .  S
C672        C961   1.476       .  S
C673        C674   1.405       .  A
C673        C678   1.412       .  A
C674        C675   1.401       .  A
C674        H679   1.084       .  S
C675        C676   1.412       .  A
C675        C682   1.445       .  S
C676        C677   1.405       .  A
C677        C678   1.403       .  A
C677        H680   1.084       .  S
C678        C681   1.444       .  S
C681        N683   1.157       .  T
C682        N684   1.157       .  T
C685        C686   1.407       .  A
C685        C690   1.416       .  A
C686        C687   1.402       .  A
C686        H691   1.084       .  S
C687        C688   1.417       .  A
C687        C694   1.445       .  S
C688        C689   1.406       .  A
C689        C690   1.398       .  A
C689        H692   1.084       .  S
C690        C693   1.445       .  S
C693        N695   1.157       .  T
C694        N696   1.158       .  T
C697        C698   1.407       .  A
C697        C702   1.416       .  A
C698        C699   1.403       .  A
C698        H703   1.084       .  S
C699        C700   1.416       .  A
C699        C706   1.444       .  S
C700        C701   1.406       .  A
C701        C702   1.397       .  A
C701        H704   1.084       .  S
C702        C705   1.445       .  S
C705        N707   1.157       .  T
C706        N708   1.157       .  T
C709        C710   1.406       .  A
C709        C714   1.416       .  A
C710        C711   1.400       .  A
C710        H715   1.084       .  S
C711        C712   1.416       .  A
C711        C718   1.444       .  S
C712        C713   1.406       .  A
C713        C714   1.400       .  A
C713        H716   1.085       .  S
C714        C717   1.444       .  S
C717        N719   1.157       .  T
C718        N720   1.157       .  T
C721        C722   1.407       .  A
C721        C726   1.417       .  A
C722        C723   1.401       .  A
C722        H727   1.084       .  S
C723        C724   1.417       .  A
C723        C730   1.445       .  S
C724        C725   1.406       .  A
C725        C726   1.399       .  A
C725        H728   1.084       .  S
C726        C729   1.445       .  S
C729        N731   1.157       .  T
C730        N732   1.157       .  T
C733        C734   1.406       .  A
C733        C738   1.417       .  A
C734        C735   1.401       .  A
C734        H739   1.085       .  S
C735        C736   1.417       .  A
C735        C742   1.445       .  S
C736        C737   1.405       .  A
C737        C738   1.398       .  A
C737        H740   1.085       .  S
C738        C741   1.445       .  S
C741        N743   1.157       .  T
C742        N744   1.157       .  T
C745        C746   1.406       .  A
C745        C750   1.417       .  A
C746        C747   1.397       .  A
C746        H751   1.084       .  S
C747        C748   1.417       .  A
C747        C754   1.445       .  S
C748        C749   1.408       .  A
C749        C750   1.401       .  A
C749        H752   1.084       .  S
C750        C753   1.445       .  S
C753        N755   1.158       .  T
C754        N756   1.157       .  T
C757        C758   1.405       .  A
C757        C762   1.414       .  A
C758        C759   1.401       .  A
C758        H763   1.084       .  S
C759        C760   1.414       .  A
C759        C766   1.444       .  S
C760        C761   1.406       .  A
C761        C762   1.402       .  A
C761        H764   1.084       .  S
C762        C765   1.445       .  S
C765        N767   1.157       .  T
C766        N768   1.157       .  T
C769        C770   1.401       .  A
C769        C774   1.410       .  A
C770        C771   1.400       .  A
C770        H775   1.085       .  S
C771        C772   1.415       .  A
C771        C778   1.445       .  S
C772        C773   1.405       .  A
C773        C774   1.401       .  A
C773        H776   1.085       .  S
C774        C777   1.444       .  S
C777        N779   1.157       .  T
C778        N780   1.157       .  T
C781        C782   1.405       .  A
C781        C786   1.413       .  A
C782        C783   1.401       .  A
C782        H787   1.085       .  S
C783        C784   1.411       .  A
C783        C790   1.444       .  S
C784        C785   1.404       .  A
C785        C786   1.401       .  A
C785        H788   1.085       .  S
C786        C789   1.444       .  S
C789        N791   1.157       .  T
C790        N792   1.157       .  T
C793        C794   1.407       .  A
C793        C798   1.418       .  A
C794        C795   1.404   1_556  A
C794        H799   1.084       .  S
C795        C796   1.417       .  A
C795        C802   1.444       .  S
C796        C797   1.406       .  A
C797        C798   1.398   1_554  A
C797        H800   1.084       .  S
C798        C801   1.445       .  S
C801        N803   1.157       .  T
C802        N804   1.157       .  T
C805        C806   1.402       .  A
C805        C810   1.412       .  A
C806        C807   1.400       .  A
C806        H811   1.085       .  S
C807        C808   1.415       .  A
C807        C814   1.445       .  S
C808        C809   1.403       .  A
C809        C810   1.401       .  A
C809        H812   1.085       .  S
C810        C813   1.444       .  S
C813        N815   1.157       .  T
C814        N816   1.157       .  T
C817        C818   1.406       .  A
C817        C822   1.413       .  A
C818        C819   1.400   1_655  A
C818        H823   1.084       .  S
C819        C820   1.412       .  A
C819        C826   1.444       .  S
C820        C821   1.405       .  A
C821        C822   1.397   1_455  A
C821        H824   1.085       .  S
C822        C825   1.445       .  S
C825        N827   1.157       .  T
C826        N828   1.157       .  T
C829        C830   1.404       .  A
C829        C834   1.413       .  A
C830        C831   1.400       .  A
C830        H835   1.085       .  S
C831        C832   1.411       .  A
C831        C838   1.444       .  S
C832        C833   1.403       .  A
C833        C834   1.400       .  A
C833        H836   1.086       .  S
C834        C837   1.445       .  S
C837        N839   1.157       .  T
C838        N840   1.157       .  T
C841        C842   1.405       .  A
C841        C846   1.415       .  A
C842        C843   1.400   1_455  A
C842        H847   1.084       .  S
C843        C844   1.415       .  A
C843        C850   1.444       .  S
C844        C845   1.406       .  A
C845        C846   1.401   1_655  A
C845        H848   1.084       .  S
C846        C849   1.444       .  S
C849        N851   1.157       .  T
C850        N852   1.157       .  T
C853        C854   1.407       .  A
C853        C858   1.415       .  A
C854        C855   1.401   1_556  A
C854        H859   1.085       .  S
C855        C856   1.414       .  A
C855        C862   1.445       .  S
C856        C857   1.405       .  A
C857        C858   1.399   1_554  A
C857        H860   1.085       .  S
C858        C861   1.444       .  S
C861        N863   1.157       .  T
C862        N864   1.157       .  T
C865        C866   1.404       .  A
C865        C870   1.412       .  A
C866        C867   1.403       .  A
C866        H871   1.085       .  S
C867        C868   1.414       .  A
C867        C874   1.445       .  S
C868        C869   1.403       .  A
C869        C870   1.401       .  A
C869        H872   1.085       .  S
C870        C873   1.444       .  S
C873        N875   1.157       .  T
C874        N876   1.157       .  T
C877        C878   1.398       .  A
C877        C882   1.407       .  A
C878        C879   1.399       .  A
C878        H883   1.086       .  S
C879        C880   1.419       .  A
C879        C886   1.444       .  S
C880        C881   1.408       .  A
C881        C882   1.401       .  A
C881        H884   1.085       .  S
C882        C885   1.444       .  S
C885        N887   1.157       .  T
C886        N888   1.157       .  T
C889        C890   1.407       .  A
C889        C894   1.415       .  A
C890        C891   1.400   1_556  A
C890        H895   1.084       .  S
C891        C892   1.413       .  A
C891        C898   1.444       .  S
C892        C893   1.406       .  A
C893        C894   1.400   1_554  A
C893        H896   1.084       .  S
C894        C897   1.444       .  S
C897        N899   1.157       .  T
C898        N900   1.157       .  T
C901        C902   1.404       .  A
C901        C906   1.414       .  A
C902        C903   1.402       .  A
C902        H907   1.085       .  S
C903        C904   1.412       .  A
C903        C910   1.444       .  S
C904        C905   1.401       .  A
C905        C906   1.400       .  A
C905        H908   1.085       .  S
C906        C909   1.445       .  S
C909        N911   1.157       .  T
C910        N912   1.157       .  T
C913        C914   1.406       .  A
C913        C918   1.414       .  A
C914        C915   1.399   1_545  A
C914        H919   1.084       .  S
C915        C916   1.414       .  A
C915        C922   1.444       .  S
C916        C917   1.407       .  A
C917        C918   1.400   1_565  A
C917        H920   1.084       .  S
C918        C921   1.445       .  S
C921        N923   1.157       .  T
C922        N924   1.157       .  T
C925        C926   1.406       .  A
C925        C930   1.417       .  A
C926        C927   1.398       .  A
C926        H931   1.085       .  S
C927        C928   1.408       .  A
C927        C934   1.445       .  S
C928        C929   1.401       .  A
C929        C930   1.402       .  A
C929        H932   1.085       .  S
C930        C933   1.444       .  S
C933        N935   1.157       .  T
C934        N936   1.157       .  T
C937        C938   1.404       .  A
C937        C942   1.413       .  A
C938        C939   1.401   1_565  A
C938        H943   1.084       .  S
C939        C940   1.413       .  A
C939        C946   1.445       .  S
C940        C941   1.403       .  A
C941        C942   1.401   1_545  A
C941        H944   1.084       .  S
C942        C945   1.444       .  S
C945        N947   1.157       .  T
C946        N948   1.157       .  T
C949        C950   1.407       .  A
C949        C954   1.414       .  A
C950        C951   1.402   1_554  A
C950        H955   1.084       .  S
C951        C952   1.416       .  A
C951        C958   1.445       .  S
C952        C953   1.406       .  A
C953        C954   1.399   1_556  A
C953        H956   1.084       .  S
C954        C957   1.444       .  S
C957        N959   1.157       .  T
C958        N960   1.158       .  T
C961        C962   1.403       .  A
C961        C966   1.410       .  A
C962        C963   1.402       .  A
C962        H967   1.085       .  S
C963        C964   1.414       .  A
C963        C970   1.445       .  S
C964        C965   1.405       .  A
C965        C966   1.401       .  A
C965        H968   1.085       .  S
C966        C969   1.444       .  S
C969        N971   1.157       .  T
C970        N972   1.157       .  T
C973        C974   1.403       .  A
C973        C978   1.412       .  A
C974        C975   1.399       .  A
C974        H979   1.086       .  S
C975        C976   1.410       .  A
C975        C982   1.444       .  S
C976        C977   1.403       .  A
C977        C978   1.399       .  A
C977        H980   1.086       .  S
C978        C981   1.445       .  S
C981        N983   1.157       .  T
C982        N984   1.157       .  T
C985        C986   1.406       .  A
C985        C990   1.417       .  A
C986        C987   1.398   1_554  A
C986        H991   1.084       .  S
C987        C988   1.417       .  A
C987        C994   1.445       .  S
C988        C989   1.408       .  A
C989        C990   1.402   1_556  A
C989        H992   1.084       .  S
C990        C993   1.445       .  S
C993        N995   1.158       .  T
C994        N996   1.157       .  T
C997        C998   1.404       .  A
C997       C1002   1.411       .  A
C998        C999   1.402       .  A
C998       H1003   1.086       .  S
C999       C1000   1.412       .  A
C999       C1006   1.442       .  S
C1000      C1001   1.406       .  A
C1001      C1002   1.403       .  A
C1001      H1004   1.085       .  S
C1002      C1005   1.444       .  S
C1005      N1007   1.157       .  T
C1006      N1008   1.157       .  T
C1009      C1010   1.405       .  A
C1009      C1014   1.413       .  A
C1010      C1011   1.403   1_655  A
C1010      H1015   1.084       .  S
C1011      C1012   1.413       .  A
C1011      C1018   1.444       .  S
C1012      C1013   1.403       .  A
C1013      C1014   1.400   1_455  A
C1013      H1016   1.084       .  S
C1014      C1017   1.444       .  S
C1017      N1019   1.157       .  T
C1018      N1020   1.157       .  T
C1021      C1022   1.403       .  A
C1021      C1026   1.411       .  A
C1022      C1023   1.402       .  A
C1022      H1027   1.085       .  S
C1023      C1024   1.415       .  A
C1023      C1030   1.445       .  S
C1024      C1025   1.404       .  A
C1025      C1026   1.401       .  A
C1025      H1028   1.085       .  S
C1026      C1029   1.444       .  S
C1029      N1031   1.157       .  T
C1030      N1032   1.157       .  T
C1033      C1034   1.405       .  A
C1033      C1038   1.416       .  A
C1034      C1035   1.400   1_655  A
C1034      H1039   1.084       .  S
C1035      C1036   1.415       .  A
C1035      C1042   1.445       .  S
C1036      C1037   1.404       .  A
C1037      C1038   1.402   1_455  A
C1037      H1040   1.084       .  S
C1038      C1041   1.444       .  S
C1041      N1043   1.157       .  T
C1042      N1044   1.157       .  T
C1045      C1046   1.406       .  A
C1045      C1050   1.418       .  A
C1046      C1047   1.401   1_556  A
C1046      H1051   1.084       .  S
C1047      C1048   1.417       .  A
C1047      C1054   1.444       .  S
C1048      C1049   1.405       .  A
C1049      C1050   1.399   1_554  A
C1049      H1052   1.084       .  S
C1050      C1053   1.445       .  S
C1053      N1055   1.157       .  T
C1054      N1056   1.157       .  T
C1057      C1058   1.403       .  A
C1057      C1062   1.411       .  A
C1058      C1059   1.400       .  A
C1058      H1063   1.086       .  S
C1059      C1060   1.412       .  A
C1059      C1066   1.444       .  S
C1060      C1061   1.404       .  A
C1061      C1062   1.400       .  A
C1061      H1064   1.085       .  S
C1062      C1065   1.444       .  S
C1065      N1067   1.157       .  T
C1066      N1068   1.157       .  T
C1069      C1070   1.403       .  A
C1069      C1074   1.410       .  A
C1070      C1071   1.402       .  A
C1070      H1075   1.086       .  S
C1071      C1072   1.414       .  A
C1071      C1078   1.444       .  S
C1072      C1073   1.404       .  A
C1073      C1074   1.400       .  A
C1073      H1076   1.085       .  S
C1074      C1077   1.444       .  S
C1077      N1079   1.157       .  T
C1078      N1080   1.157       .  T
C1081      C1082   1.406       .  A
C1081      C1086   1.415       .  A
C1082      C1083   1.399   1_556  A
C1082      H1087   1.085       .  S
C1083      C1084   1.413       .  A
C1083      C1090   1.444       .  S
C1084      C1085   1.406       .  A
C1085      C1086   1.400   1_554  A
C1085      H1088   1.085       .  S
C1086      C1089   1.445       .  S
C1089      N1091   1.157       .  T
C1090      N1092   1.157       .  T
C1093      C1094   1.404       .  A
C1093      C1098   1.413       .  A
C1094      C1095   1.400       .  A
C1094      H1099   1.085       .  S
C1095      C1096   1.410       .  A
C1095      C1102   1.445       .  S
C1096      C1097   1.402       .  A
C1097      C1098   1.400       .  A
C1097      H1100   1.086       .  S
C1098      C1101   1.444       .  S
C1101      N1103   1.157       .  T
C1102      N1104   1.157       .  T
C1105      C1106   1.405       .  A
C1105      C1110   1.416       .  A
C1106      C1107   1.400   1_565  A
C1106      H1111   1.085       .  S
C1107      C1108   1.414       .  A
C1107      C1114   1.445       .  S
C1108      C1109   1.405       .  A
C1109      C1110   1.401   1_545  A
C1109      H1112   1.085       .  S
C1110      C1113   1.445       .  S
C1113      N1115   1.157       .  T
C1114      N1116   1.157       .  T
C1117      C1118   1.405       .  A
C1117      C1122   1.414       .  A
C1118      C1119   1.402       .  A
C1118      H1123   1.084       .  S
C1119      C1120   1.411       .  A
C1119      C1126   1.444       .  S
C1120      C1121   1.404       .  A
C1121      C1122   1.404       .  A
C1121      H1124   1.084       .  S
C1122      C1125   1.444       .  S
C1125      N1127   1.157       .  T
C1126      N1128   1.157       .  T
C1129      C1130   1.405       .  A
C1129      C1134   1.415       .  A
C1130      C1131   1.400   1_545  A
C1130      H1135   1.085       .  S
C1131      C1132   1.413       .  A
C1131      C1138   1.445       .  S
C1132      C1133   1.404       .  A
C1133      C1134   1.401   1_565  A
C1133      H1136   1.085       .  S
C1134      C1137   1.444       .  S
C1137      N1139   1.157       .  T
C1138      N1140   1.157       .  T
C1141      C1142   1.405       .  A
C1141      C1146   1.417       .  A
C1142      C1143   1.398   1_556  A
C1142      H1147   1.084       .  S
C1143      C1144   1.417       .  A
C1143      C1150   1.445       .  S
C1144      C1145   1.406       .  A
C1145      C1146   1.401   1_554  A
C1145      H1148   1.084       .  S
C1146      C1149   1.445       .  S
C1149      N1151   1.158       .  T
C1150      N1152   1.157       .  T
C1153      C1154   1.405       .  A
C1153      C1158   1.414       .  A
C1154      C1155   1.400   1_545  A
C1154      H1159   1.084       .  S
C1155      C1156   1.414       .  A
C1155      C1162   1.444       .  S
C1156      C1157   1.405       .  A
C1157      C1158   1.401   1_565  A
C1157      H1160   1.084       .  S
C1158      C1161   1.445       .  S
C1161      N1163   1.157       .  T
C1162      N1164   1.157       .  T
C1165      C1166   1.404       .  A
C1165      C1170   1.413       .  A
C1166      C1167   1.399   1_455  A
C1166      H1171   1.085       .  S
C1167      C1168   1.416       .  A
C1167      C1174   1.445       .  S
C1168      C1169   1.405       .  A
C1169      C1170   1.400   1_655  A
C1169      H1172   1.085       .  S
C1170      C1173   1.445       .  S
C1173      N1175   1.157       .  T
C1174      N1176   1.157       .  T
C1177      C1178   1.406       .  A
C1177      C1182   1.416       .  A
C1178      C1179   1.401   1_455  A
C1178      H1183   1.084       .  S
C1179      C1180   1.417       .  A
C1179      C1186   1.445       .  S
C1180      C1181   1.405       .  A
C1181      C1182   1.397   1_655  A
C1181      H1184   1.084       .  S
C1182      C1185   1.445       .  S
C1185      N1187   1.157       .  T
C1186      N1188   1.158       .  T
C1189      C1190   1.406       .  A
C1189      C1194   1.417       .  A
C1190      C1191   1.397   1_565  A
C1190      H1195   1.084       .  S
C1191      C1192   1.416       .  A
C1191      C1198   1.445       .  S
C1192      C1193   1.408       .  A
C1193      C1194   1.402   1_545  A
C1193      H1196   1.084       .  S
C1194      C1197   1.445       .  S
C1197      N1199   1.158       .  T
C1198      N1200   1.157       .  T
C1201      C1202   1.399       .  A
C1201      C1206   1.410       .  A
C1202      C1203   1.397       .  A
C1202      H1207   1.086       .  S
C1203      C1204   1.415       .  A
C1203      C1210   1.445       .  S
C1204      C1205   1.406       .  A
C1205      C1206   1.402       .  A
C1205      H1208   1.085       .  S
C1206      C1209   1.445       .  S
C1209      N1211   1.157       .  T
C1210      N1212   1.157       .  T
C1213      C1214   1.403       .  A
C1213      C1218   1.412       .  A
C1214      C1215   1.399       .  A
C1214      H1219   1.086       .  S
C1215      C1216   1.412       .  A
C1215      C1222   1.444       .  S
C1216      C1217   1.404       .  A
C1217      C1218   1.401       .  A
C1217      H1220   1.085       .  S
C1218      C1221   1.444       .  S
C1221      N1223   1.157       .  T
C1222      N1224   1.157       .  T
C1225      C1226   1.404       .  A
C1225      C1230   1.411       .  A
C1226      C1227   1.398       .  A
C1226      H1231   1.086       .  S
C1227      C1228   1.410       .  A
C1227      C1234   1.445       .  S
C1228      C1229   1.403       .  A
C1229      C1230   1.400       .  A
C1229      H1232   1.085       .  S
C1230      C1233   1.444       .  S
C1233      N1235   1.157       .  T
C1234      N1236   1.157       .  T
C1237      C1238   1.405       .  A
C1237      C1242   1.414       .  A
C1238      C1239   1.401       .  A
C1238      H1243   1.085       .  S
C1239      C1240   1.414       .  A
C1239      C1246   1.445       .  S
C1240      C1241   1.403       .  A
C1241      C1242   1.398       .  A
C1241      H1244   1.086       .  S
C1242      C1245   1.444       .  S
C1245      N1247   1.157       .  T
C1246      N1248   1.157       .  T
C1249      C1250   1.402       .  A
C1249      C1254   1.409       .  A
C1250      C1251   1.401       .  A
C1250      H1255   1.085       .  S
C1251      C1252   1.414       .  A
C1251      C1258   1.445       .  S
C1252      C1253   1.405       .  A
C1253      C1254   1.400       .  A
C1253      H1256   1.085       .  S
C1254      C1257   1.444       .  S
C1257      N1259   1.157       .  T
C1258      N1260   1.157       .  T
C1261      C1262   1.402       .  A
C1261      C1266   1.410       .  A
C1262      C1263   1.399       .  A
C1262      H1267   1.086       .  S
C1263      C1264   1.413       .  A
C1263      C1270   1.444       .  S
C1264      C1265   1.405       .  A
C1265      C1266   1.401       .  A
C1265      H1268   1.085       .  S
C1266      C1269   1.444       .  S
C1269      N1271   1.157       .  T
C1270      N1272   1.157       .  T
C1273      C1274   1.407       .  A
C1273      C1278   1.418       .  A
C1274      C1275   1.401       .  A
C1274      H1279   1.084       .  S
C1275      C1276   1.417       .  A
C1275      C1282   1.444       .  S
C1276      C1277   1.406       .  A
C1277      C1278   1.399       .  A
C1277      H1280   1.084       .  S
C1278      C1281   1.445       .  S
C1281      N1283   1.157       .  T
C1282      N1284   1.157       .  T
C1285      C1286   1.403       .  A
C1285      C1290   1.412       .  A
C1286      C1287   1.401       .  A
C1286      H1291   1.085       .  S
C1287      C1288   1.413       .  A
C1287      C1294   1.444       .  S
C1288      C1289   1.404       .  A
C1289      C1290   1.399       .  A
C1289      H1292   1.085       .  S
C1290      C1293   1.445       .  S
C1293      N1295   1.157       .  T
C1294      N1296   1.157       .  T
C1297      C1298   1.406       .  A
C1297      C1302   1.415       .  A
C1298      C1299   1.401       .  A
C1298      H1303   1.084       .  S
C1299      C1300   1.415       .  A
C1299      C1306   1.444       .  S
C1300      C1301   1.405       .  A
C1301      C1302   1.398       .  A
C1301      H1304   1.084       .  S
C1302      C1305   1.445       .  S
C1305      N1307   1.157       .  T
C1306      N1308   1.157       .  T
C1309      C1310   1.407       .  A
C1309      C1314   1.416       .  A
C1310      C1311   1.400       .  A
C1310      H1315   1.084       .  S
C1311      C1312   1.415       .  A
C1311      C1318   1.445       .  S
C1312      C1313   1.405       .  A
C1313      C1314   1.398       .  A
C1313      H1316   1.084       .  S
C1314      C1317   1.444       .  S
C1317      N1319   1.157       .  T
C1318      N1320   1.157       .  T
C1321      C1322   1.401       .  A
C1321      C1326   1.410       .  A
C1322      C1323   1.399       .  A
C1322      H1327   1.085       .  S
C1323      C1324   1.414       .  A
C1323      C1330   1.444       .  S
C1324      C1325   1.404       .  A
C1325      C1326   1.398       .  A
C1325      H1328   1.084       .  S
C1326      C1329   1.445       .  S
C1329      N1331   1.157       .  T
C1330      N1332   1.157       .  T
C1333      C1334   1.405       .  A
C1333      C1338   1.415       .  A
C1334      C1335   1.401       .  A
C1334      H1339   1.085       .  S
C1335      C1336   1.410       .  A
C1335      C1342   1.444       .  S
C1336      C1337   1.401       .  A
C1337      C1338   1.400       .  A
C1337      H1340   1.085       .  S
C1338      C1341   1.444       .  S
C1341      N1343   1.157       .  T
C1342      N1344   1.157       .  T
C1345      C1346   1.403       .  A
C1345      C1350   1.411       .  A
C1346      C1347   1.401       .  A
C1346      H1351   1.085       .  S
C1347      C1348   1.414       .  A
C1347      C1354   1.444       .  S
C1348      C1349   1.404       .  A
C1349      C1350   1.399       .  A
C1349      H1352   1.085       .  S
C1350      C1353   1.444       .  S
C1353      N1355   1.157       .  T
C1354      N1356   1.157       .  T
C1357      C1358   1.404       .  A
C1357      C1362   1.413       .  A
C1358      C1359   1.399       .  A
C1358      H1363   1.084       .  S
C1359      C1360   1.413       .  A
C1359      C1366   1.445       .  S
C1360      C1361   1.404       .  A
C1361      C1362   1.398       .  A
C1361      H1364   1.084       .  S
C1362      C1365   1.445       .  S
C1365      N1367   1.157       .  T
C1366      N1368   1.157       .  T
C1369      C1370   1.404       .  A
C1369      C1374   1.411       .  A
C1370      C1371   1.399       .  A
C1370      H1375   1.086       .  S
C1371      C1372   1.411       .  A
C1371      C1378   1.444       .  S
C1372      C1373   1.405       .  A
C1373      C1374   1.401       .  A
C1373      H1376   1.085       .  S
C1374      C1377   1.444       .  S
C1377      N1379   1.157       .  T
C1378      N1380   1.157       .  T
C1381      C1382   1.403       .  A
C1381      C1386   1.412       .  A
C1382      C1383   1.401       .  A
C1382      H1387   1.085       .  S
C1383      C1384   1.412       .  A
C1383      C1390   1.444       .  S
C1384      C1385   1.404       .  A
C1385      C1386   1.401       .  A
C1385      H1388   1.085       .  S
C1386      C1389   1.444       .  S
C1389      N1391   1.157       .  T
C1390      N1392   1.157       .  T
C1393      C1394   1.407       .  A
C1393      C1398   1.416       .  A
C1394      C1395   1.399       .  A
C1394      H1399   1.084       .  S
C1395      C1396   1.417       .  A
C1395      C1402   1.445       .  S
C1396      C1397   1.407       .  A
C1397      C1398   1.401       .  A
C1397      H1400   1.084       .  S
C1398      C1401   1.444       .  S
C1401      N1403   1.157       .  T
C1402      N1404   1.157       .  T
C1405      C1406   1.401       .  A
C1405      C1410   1.410       .  A
C1406      C1407   1.399       .  A
C1406      H1411   1.086       .  S
C1407      C1408   1.413       .  A
C1407      C1414   1.444       .  S
C1408      C1409   1.405       .  A
C1409      C1410   1.400       .  A
C1409      H1412   1.085       .  S
C1410      C1413   1.445       .  S
C1413      N1415   1.157       .  T
C1414      N1416   1.157       .  T
C1417      C1418   1.406       .  A
C1417      C1422   1.415       .  A
C1418      C1419   1.400       .  A
C1418      H1423   1.084       .  S
C1419      C1420   1.412       .  A
C1419      C1426   1.444       .  S
C1420      C1421   1.406       .  A
C1421      C1422   1.402       .  A
C1421      H1424   1.084       .  S
C1422      C1425   1.444       .  S
C1425      N1427   1.157       .  T
C1426      N1428   1.157       .  T
C1429      C1430   1.404       .  A
C1429      C1434   1.413       .  A
C1430      C1431   1.399       .  A
C1430      H1435   1.084       .  S
C1431      C1432   1.414       .  A
C1431      C1438   1.445       .  S
C1432      C1433   1.404       .  A
C1433      C1434   1.399       .  A
C1433      H1436   1.084       .  S
C1434      C1437   1.445       .  S
C1437      N1439   1.157       .  T
C1438      N1440   1.157       .  T
C1441      C1442   1.406       .  A
C1441      C1446   1.415       .  A
C1442      C1443   1.399       .  A
C1442      H1447   1.085       .  S
C1443      C1444   1.408       .  A
C1443      C1450   1.445       .  S
C1444      C1445   1.400       .  A
C1445      C1446   1.397       .  A
C1445      H1448   1.086       .  S
C1446      C1449   1.445       .  S
C1449      N1451   1.157       .  T
C1450      N1452   1.157       .  T
C1453      C1454   1.403       .  A
C1453      C1458   1.411       .  A
C1454      C1455   1.401       .  A
C1454      H1459   1.085       .  S
C1455      C1456   1.412       .  A
C1455      C1462   1.445       .  S
C1456      C1457   1.403       .  A
C1457      C1458   1.399       .  A
C1457      H1460   1.086       .  S
C1458      C1461   1.444       .  S
C1461      N1463   1.157       .  T
C1462      N1464   1.157       .  T
C1465      C1466   1.403       .  A
C1465      C1470   1.413       .  A
C1466      C1467   1.397       .  A
C1466      H1471   1.086       .  S
C1467      C1468   1.410       .  A
C1467      C1474   1.444       .  S
C1468      C1469   1.405       .  A
C1469      C1470   1.403       .  A
C1469      H1472   1.086       .  S
C1470      C1473   1.444       .  S
C1473      N1475   1.157       .  T
C1474      N1476   1.157       .  T
C1477      C1478   1.404       .  A
C1477      C1482   1.416       .  A
C1478      C1479   1.398       .  A
C1478      H1483   1.085       .  S
C1479      C1480   1.415       .  A
C1479      C1486   1.445       .  S
C1480      C1481   1.404       .  A
C1481      C1482   1.401       .  A
C1481      H1484   1.085       .  S
C1482      C1485   1.445       .  S
C1485      N1487   1.157       .  T
C1486      N1488   1.157       .  T
C1489      C1490   1.405       .  A
C1489      C1494   1.412       .  A
C1490      C1491   1.399       .  A
C1490      H1495   1.085       .  S
C1491      C1492   1.410       .  A
C1491      C1498   1.445       .  S
C1492      C1493   1.403       .  A
C1493      C1494   1.401       .  A
C1493      H1496   1.085       .  S
C1494      C1497   1.444       .  S
C1497      N1499   1.157       .  T
C1498      N1500   1.157       .  T
C1501      C1502   1.405       .  A
C1501      C1506   1.415       .  A
C1502      C1503   1.400       .  A
C1502      H1507   1.085       .  S
C1503      C1504   1.410       .  A
C1503      C1510   1.444       .  S
C1504      C1505   1.402       .  A
C1505      C1506   1.400       .  A
C1505      H1508   1.086       .  S
C1506      C1509   1.444       .  S
C1509      N1511   1.157       .  T
C1510      N1512   1.157       .  T
C1513      C1514   1.406       .  A
C1513      C1518   1.417       .  A
C1514      C1515   1.398       .  A
C1514      H1519   1.084       .  S
C1515      C1516   1.418       .  A
C1515      C1522   1.445       .  S
C1516      C1517   1.407       .  A
C1517      C1518   1.401       .  A
C1517      H1520   1.084       .  S
C1518      C1521   1.445       .  S
C1521      N1523   1.158       .  T
C1522      N1524   1.157       .  T
C1525      C1526   1.403       .  A
C1525      C1530   1.415       .  A
C1526      C1527   1.399       .  A
C1526      H1531   1.085       .  S
C1527      C1528   1.410       .  A
C1527      C1534   1.444       .  S
C1528      C1529   1.402       .  A
C1529      C1530   1.400       .  A
C1529      H1532   1.085       .  S
C1530      C1533   1.445       .  S
C1533      N1535   1.157       .  T
C1534      N1536   1.157       .  T
C1537      C1538   1.404       .  A
C1537      C1542   1.412       .  A
C1538      C1539   1.401       .  A
C1538      H1543   1.084       .  S
C1539      C1540   1.412       .  A
C1539      C1546   1.444       .  S
C1540      C1541   1.404       .  A
C1541      C1542   1.399       .  A
C1541      H1544   1.084       .  S
C1542      C1545   1.445       .  S
C1545      N1547   1.157       .  T
C1546      N1548   1.157       .  T
C1549      C1550   1.405       .  A
C1549      C1554   1.414       .  A
C1550      C1551   1.401       .  A
C1550      H1555   1.084       .  S
C1551      C1552   1.416       .  A
C1551      C1558   1.445       .  S
C1552      C1553   1.404       .  A
C1553      C1554   1.398       .  A
C1553      H1556   1.084       .  S
C1554      C1557   1.444       .  S
C1557      N1559   1.157       .  T
C1558      N1560   1.158       .  T
C1561      C1562   1.403       .  A
C1561      C1566   1.413       .  A
C1562      C1563   1.398       .  A
C1562      H1567   1.085       .  S
C1563      C1564   1.411       .  A
C1563      C1570   1.444       .  S
C1564      C1565   1.405       .  A
C1565      C1566   1.402       .  A
C1565      H1568   1.085       .  S
C1566      C1569   1.445       .  S
C1569      N1571   1.157       .  T
C1570      N1572   1.157       .  T
C1573      C1574   1.398       .  A
C1573      C1578   1.407       .  A
C1574      C1575   1.402       .  A
C1574      H1579   1.086       .  S
C1575      C1576   1.422       .  A
C1575      C1582   1.444       .  S
C1576      C1577   1.409       .  A
C1577      C1578   1.400       .  A
C1577      H1580   1.085       .  S
C1578      C1581   1.445       .  S
C1581      N1583   1.157       .  T
C1582      N1584   1.157       .  T
C1585      C1586   1.406       .  A
C1585      C1590   1.416       .  A
C1586      C1587   1.398       .  A
C1586      H1591   1.085       .  S
C1587      C1588   1.408       .  A
C1587      C1594   1.445       .  S
C1588      C1589   1.401       .  A
C1589      C1590   1.401       .  A
C1589      H1592   1.086       .  S
C1590      C1593   1.444       .  S
C1593      N1595   1.157       .  T
C1594      N1596   1.157       .  T
C1597      C1598   1.406       .  A
C1597      C1602   1.416       .  A
C1598      C1599   1.401       .  A
C1598      H1603   1.084       .  S
C1599      C1600   1.416       .  A
C1599      C1606   1.445       .  S
C1600      C1601   1.405       .  A
C1601      C1602   1.399       .  A
C1601      H1604   1.084       .  S
C1602      C1605   1.444       .  S
C1605      N1607   1.157       .  T
C1606      N1608   1.158       .  T
C1609      C1610   1.402       .  A
C1609      C1614   1.410       .  A
C1610      C1611   1.399       .  A
C1610      H1615   1.086       .  S
C1611      C1612   1.413       .  A
C1611      C1618   1.444       .  S
C1612      C1613   1.404       .  A
C1613      C1614   1.399       .  A
C1613      H1616   1.085       .  S
C1614      C1617   1.444       .  S
C1617      N1619   1.157       .  T
C1618      N1620   1.157       .  T
C1621      C1622   1.403       .  A
C1621      C1626   1.411       .  A
C1622      C1623   1.399       .  A
C1622      H1627   1.085       .  S
C1623      C1624   1.411       .  A
C1623      C1630   1.444       .  S
C1624      C1625   1.403       .  A
C1625      C1626   1.399       .  A
C1625      H1628   1.085       .  S
C1626      C1629   1.445       .  S
C1629      N1631   1.157       .  T
C1630      N1632   1.157       .  T
C1633      C1634   1.406       .  A
C1633      C1638   1.415       .  A
C1634      C1635   1.399       .  A
C1634      H1639   1.084       .  S
C1635      C1636   1.414       .  A
C1635      C1642   1.445       .  S
C1636      C1637   1.405       .  A
C1637      C1638   1.399       .  A
C1637      H1640   1.084       .  S
C1638      C1641   1.444       .  S
C1641      N1643   1.157       .  T
C1642      N1644   1.157       .  T
C1645      C1646   1.401       .  A
C1645      C1650   1.411       .  A
C1646      C1647   1.398       .  A
C1646      H1651   1.086       .  S
C1647      C1648   1.413       .  A
C1647      C1654   1.444       .  S
C1648      C1649   1.405       .  A
C1649      C1650   1.402       .  A
C1649      H1652   1.085       .  S
C1650      C1653   1.445       .  S
C1653      N1655   1.157       .  T
C1654      N1656   1.157       .  T
C1657      C1658   1.406       .  A
C1657      C1662   1.415       .  A
C1658      C1659   1.402       .  A
C1658      H1663   1.084       .  S
C1659      C1660   1.415       .  A
C1659      C1666   1.444       .  S
C1660      C1661   1.405       .  A
C1661      C1662   1.398       .  A
C1661      H1664   1.085       .  S
C1662      C1665   1.445       .  S
C1665      N1667   1.157       .  T
C1666      N1668   1.157       .  T
C1669      C1670   1.404       .  A
C1669      C1674   1.414       .  A
C1670      C1671   1.399       .  A
C1670      H1675   1.085       .  S
C1671      C1672   1.413       .  A
C1671      C1678   1.445       .  S
C1672      C1673   1.403       .  A
C1673      C1674   1.398       .  A
C1673      H1676   1.085       .  S
C1674      C1677   1.445       .  S
C1677      N1679   1.157       .  T
C1678      N1680   1.157       .  T
C1681      C1682   1.402       .  A
C1681      C1686   1.411       .  A
C1682      C1683   1.397       .  A
C1682      H1687   1.083       .  S
C1683      C1684   1.412       .  A
C1683      C1690   1.445       .  S
C1684      C1685   1.404       .  A
C1685      C1686   1.399       .  A
C1685      H1688   1.085       .  S
C1686      C1689   1.444       .  S
C1689      N1691   1.157       .  T
C1690      N1692   1.157       .  T
C1693      C1694   1.402       .  A
C1693      C1698   1.415       .  A
C1694      C1695   1.399       .  A
C1694      H1699   1.085       .  S
C1695      C1696   1.411       .  A
C1695      C1702   1.444       .  S
C1696      C1697   1.403       .  A
C1697      C1698   1.402       .  A
C1697      H1700   1.086       .  S
C1698      C1701   1.445       .  S
C1701      N1703   1.157       .  T
C1702      N1704   1.157       .  T
C1705      C1706   1.406       .  A
C1705      C1710   1.417       .  A
C1706      C1707   1.400       .  A
C1706      H1711   1.085       .  S
C1707      C1708   1.408       .  A
C1707      C1714   1.444       .  S
C1708      C1709   1.401       .  A
C1709      C1710   1.401       .  A
C1709      H1712   1.086       .  S
C1710      C1713   1.445       .  S
C1713      N1715   1.158       .  T
C1714      N1716   1.157       .  T
C1717      C1718   1.406       .  A
C1717      C1722   1.417       .  A
C1718      C1719   1.400       .  A
C1718      H1723   1.084       .  S
C1719      C1720   1.408       .  A
C1719      C1726   1.445       .  S
C1720      C1721   1.400       .  A
C1721      C1722   1.400       .  A
C1721      H1724   1.085       .  S
C1722      C1725   1.445       .  S
C1725      N1727   1.157       .  T
C1726      N1728   1.157       .  T
C1729      C1730   1.408       .  A
C1729      C1734   1.417       .  A
C1730      C1731   1.403   1_545  A
C1730      H1735   1.084       .  S
C1731      C1732   1.417       .  A
C1731      C1738   1.444       .  S
C1732      C1733   1.406       .  A
C1733      C1734   1.398   1_565  A
C1733      H1736   1.084       .  S
C1734      C1737   1.445       .  S
C1737      N1739   1.157       .  T
C1738      N1740   1.157       .  T
C1741      C1742   1.402       .  A
C1741      C1746   1.409       .  A
C1742      C1743   1.400       .  A
C1742      H1747   1.085       .  S
C1743      C1744   1.414       .  A
C1743      C1750   1.444       .  S
C1744      C1745   1.407       .  A
C1745      C1746   1.402       .  A
C1745      H1748   1.085       .  S
C1746      C1749   1.444       .  S
C1749      N1751   1.157       .  T
C1750      N1752   1.157       .  T
C1753      C1754   1.405       .  A
C1753      C1758   1.414       .  A
C1754      C1755   1.400       .  A
C1754      H1759   1.085       .  S
C1755      C1756   1.410       .  A
C1755      C1762   1.445       .  S
C1756      C1757   1.402       .  A
C1757      C1758   1.401       .  A
C1757      H1760   1.086       .  S
C1758      C1761   1.444       .  S
C1761      N1763   1.157       .  T
C1762      N1764   1.157       .  T
C1765      C1766   1.407       .  A
C1765      C1770   1.417       .  A
C1766      C1767   1.401   1_455  A
C1766      H1771   1.083       .  S
C1767      C1768   1.417       .  A
C1767      C1774   1.444       .  S
C1768      C1769   1.408       .  A
C1769      C1770   1.402   1_655  A
C1769      H1772   1.083       .  S
C1770      C1773   1.445       .  S
C1773      N1775   1.157       .  T
C1774      N1776   1.157       .  T
C1777      C1778   1.409       .  A
C1777      C1782   1.416       .  A
C1778      C1779   1.400       .  A
C1778      H1783   1.085       .  S
C1779      C1780   1.407       .  A
C1779      C1786   1.445       .  S
C1780      C1781   1.401       .  A
C1781      C1782   1.401       .  A
C1781      H1784   1.086       .  S
C1782      C1785   1.443       .  S
C1785      N1787   1.157       .  T
C1786      N1788   1.157       .  T
C1789      C1790   1.404       .  A
C1789      C1794   1.411       .  A
C1790      C1791   1.399       .  A
C1790      H1795   1.085       .  S
C1791      C1792   1.412       .  A
C1791      C1798   1.445       .  S
C1792      C1793   1.404       .  A
C1793      C1794   1.401       .  A
C1793      H1796   1.085       .  S
C1794      C1797   1.444       .  S
C1797      N1799   1.157       .  T
C1798      N1800   1.157       .  T
C1801      C1802   1.405       .  A
C1801      C1806   1.419       .  A
C1802      C1803   1.401   1_455  A
C1802      H1807   1.084       .  S
C1803      C1804   1.418       .  A
C1803      C1810   1.444       .  S
C1804      C1805   1.406       .  A
C1805      C1806   1.401   1_655  A
C1805      H1808   1.084       .  S
C1806      C1809   1.445       .  S
C1809      N1811   1.158       .  T
C1810      N1812   1.157       .  T
C1813      C1814   1.403       .  A
C1813      C1818   1.419       .  A
C1814      C1815   1.396   1_545  A
C1814      H1819   1.084       .  S
C1815      C1816   1.419       .  A
C1815      C1822   1.445       .  S
C1816      C1817   1.407       .  A
C1817      C1818   1.405   1_565  A
C1817      H1820   1.084       .  S
C1818      C1821   1.445       .  S
C1821      N1823   1.158       .  T
C1822      N1824   1.157       .  T
