geometry optimzed in LAMMPS
_audit_creation_date              2020-11-30 
_audit_creation_method            'lammps2cif' 
_symmetry_space_group_name_H-M    'P1' 
_symmetry_Int_Tables_number       1 
_symmetry_cell_setting            triclinic 
loop_ 
_symmetry_equiv_pos_as_xyz 
  x,y,z 
_cell_length_a                    27.83060606 
_cell_length_b                    27.83187261904963 
_cell_length_c                    49.30763011261593 
_cell_angle_alpha                 89.97540421544069 
_cell_angle_beta                  89.92387382714601 
_cell_angle_gamma                 90.75236558660939 
loop_ 
_atom_site_label 
_atom_site_type_symbol 
_atom_site_fract_x 
_atom_site_fract_y 
_atom_site_fract_z 
_atom_site_charge 
C1          C  0.98792628  0.84845168  0.44088575     0.42700
N2          N  0.01224268  0.89365695  0.47342229     0.01600
C3          C  0.87729679  0.05231526  0.04962651    -0.06300
H4          H  0.87821121  0.08614575  0.44504814     0.07100
C5          C  0.05851079  0.12019997  0.45326574    -0.06700
Co6        Co  0.93064553  0.94170128  0.00176023     0.74200
N7          N  0.90664151  0.03047969  0.47081890    -0.25800
Co8        Co  0.94727864  0.06532616  0.50081113     0.74100
C9          C  0.01780506  0.14317564  0.44005377     0.42800
N10         N  0.10365473  0.00726770  0.47359059     0.01200
N11         N  0.99152358  0.09711327  0.47170591     0.01300
N12         N  0.86697766  0.97146226  0.04984259    -0.46700
H13         H  0.90885987  0.86797854  0.44837776     0.07100
N14         N  0.90030359  0.98338580  0.47123960     0.01600
N15         N  0.98911757  0.09843862  0.03085683     0.01300
C16         C  0.01288773  0.14266334  0.06391021     0.42900
N17         N  0.09769794  0.96009707  0.47392663    -0.25300
C18         C  0.94207636  0.87454839  0.05173730    -0.06200
N19         N  0.02730268  0.86321370  0.45468520    -0.46400
N20         N  0.97381433  0.12876859  0.04959459    -0.46600
C21         C  0.98192601  0.85099048  0.06518862     0.42700
N22         N  0.89757156  0.98537926  0.03065426     0.01600
N23         N  0.09551968  0.96080913  0.03291270    -0.25300
N24         N  0.96521458  0.89926410  0.47300590    -0.25800
N25         N  0.10174077  0.00792202  0.03286939     0.01200
H26         H  0.12728427  0.90389174  0.05632344     0.07100
H27         H  0.09200783  0.12273531  0.05710009     0.07100
N28         N  0.90399512  0.03245092  0.03005505    -0.25900
N29         N  0.03862792  0.09221616  0.47257901    -0.25500
N30         N  0.00962905  0.89477614  0.03276704     0.01600
C31         C  0.85865713  0.00669543  0.43724380     0.43000
C32         C  0.12534119  0.94103551  0.45444213    -0.06700
N33         N  0.03611074  0.09242941  0.03167638    -0.25500
H34         H  0.09658809  0.12524645  0.44967871     0.07100
N35         N  0.87119173  0.96778650  0.45180883    -0.46700
H36         H  0.12935807  0.90309001  0.45046128     0.07100
C37         C  0.14755241  0.98292779  0.06480945     0.42800
C38         C  0.94664233  0.87206090  0.45306748    -0.06200
Co39       Co  0.05428784  0.92653381  0.00328351     0.73800
N40         N  0.13452477  0.02189749  0.45474648    -0.46400
C41         C  0.85334335  0.01178791  0.06282594     0.43100
N42         N  0.02263462  0.86442787  0.05208733    -0.46400
Co43       Co  0.07080728  0.05048539  0.50269971     0.73900
C44         C  0.05436246  0.11905966  0.05199313    -0.06700
C45         C  0.88146117  0.04848148  0.45001915    -0.06300
N46         N  0.96265706  0.90091353  0.03202952    -0.25800
N47         N  0.97762265  0.12754311  0.45272495    -0.46600
H48         H  0.87415358  0.09034871  0.05361387     0.07100
C49         C  0.12293674  0.94183462  0.05244432    -0.06700
Cl50       Cl  0.00078943  0.99602098  0.00214974    -0.49700
C51         C  0.14953735  0.98219446  0.44164854     0.42800
H52         H  0.90389199  0.87072740  0.05538365     0.07000
N53         N  0.13304297  0.02256449  0.05142584    -0.46400
N54         N  0.99486643  0.42161748  0.25360251    -0.36400
N55         N  0.99070359  0.49797605  0.29415257    -0.56900
N56         N  0.98413018  0.56920202  0.25053197    -0.36400
N57         N  0.98178582  0.49233024  0.21016089    -0.56900
C58         C  0.99024165  0.39514272  0.27652185     0.27200
C59         C  0.98675423  0.39197630  0.23230898     0.27200
C60         C  0.97804984  0.59796560  0.27237134     0.27200
C61         C  0.97417427  0.59530107  0.22810248     0.27200
C62         C  0.00150484  0.46082015  0.31061373     0.35800
C63         C  0.99638696  0.53842264  0.30900811     0.35800
C64         C  0.98794861  0.45269899  0.19474038     0.35800
C65         C  0.98177548  0.53034734  0.19303858     0.35800
C66         C  0.97953619  0.34786407  0.26965795    -0.21700
C67         C  0.97763649  0.34581744  0.24179725    -0.21700
C68         C  0.96446699  0.64318760  0.26369252    -0.21700
C69         C  0.96262648  0.64170880  0.23586000    -0.21700
C70         C  0.01364900  0.47766786  0.33617439    -0.22700
C71         C  0.01044007  0.52682204  0.33516018    -0.22700
C72         C  0.99081421  0.46549914  0.16760783    -0.22700
C73         C  0.98661789  0.51453643  0.16651715    -0.22700
C74         C  0.99786901  0.41172214  0.30340413    -0.18100
C75         C  0.98938540  0.40483003  0.20451090    -0.18100
C76         C  0.97679549  0.57917416  0.20077662    -0.18100
C77         C  0.98664675  0.58556116  0.29986305    -0.18100
H78         H  0.97417318  0.31776989  0.28329318     0.15700
H79         H  0.97038640  0.31387735  0.22989961     0.14800
H80         H  0.95738181  0.67439771  0.27608533     0.14800
H81         H  0.95382932  0.67170351  0.22291190     0.14800
H82         H  0.02340100  0.45670580  0.35377561     0.13100
H83         H  0.01732216  0.55121090  0.35184361     0.13100
H84         H  0.99512947  0.44194555  0.15033697     0.13100
H85         H  0.98725549  0.53605990  0.14823430     0.13100
H86         H  0.00568103  0.45723064  0.25244135     0.26400
H87         H  0.99647080  0.53443081  0.25086605     0.26400
N88         N  0.57499161  0.01488218  0.25211903    -0.36400
N89         N  0.50232773  0.00862420  0.20980628    -0.56900
N90         N  0.42747709  0.00618423  0.25106306    -0.36400
N91         N  0.50030248  0.00692347  0.29342945    -0.56900
C92         C  0.60277185  0.00675521  0.23010747     0.27200
C93         C  0.60181017  0.00538584  0.27429523     0.27200
C94         C  0.40234153  0.99298598  0.22874156     0.27200
C95         C  0.40119428  0.99260416  0.27292446     0.27200
C96         C  0.54107751  0.01940745  0.19436888     0.35800
C97         C  0.46347081  0.01433877  0.19383371     0.35800
C98         C  0.53855396  0.01694752  0.30941814     0.35800
C99         C  0.46062821  0.01343354  0.30877443     0.35800
C100        C  0.64804512  0.99262500  0.23837661    -0.21700
C101        C  0.64745224  0.99177154  0.26626527    -0.21700
C102        C  0.35939587  0.97119702  0.23648445    -0.21700
C103        C  0.35872683  0.97082148  0.26439130    -0.21700
C104        C  0.52683664  0.03164826  0.16836406    -0.22700
C105        C  0.47753190  0.02846851  0.16803144    -0.22700
C106        C  0.52318205  0.02948363  0.33516964    -0.22700
C107        C  0.47373251  0.02751971  0.33472410    -0.22700
C108        C  0.58916652  0.01419134  0.20281676    -0.18100
C109        C  0.58706243  0.01132703  0.30156441    -0.18100
C110        C  0.41319769  0.00220283  0.30029571    -0.18100
C111        C  0.41595233  0.00269109  0.20162999    -0.18100
H112        H  0.67850307  0.98417387  0.22564802     0.14800
H113        H  0.67741631  0.98257301  0.27914950     0.14800
H114        H  0.33128600  0.95733964  0.22338420     0.14800
H115        H  0.32995687  0.95664823  0.27697141     0.14800
H116        H  0.54964026  0.04097263  0.15130604     0.13100
H117        H  0.45471772  0.03480494  0.15066570     0.13100
H118        H  0.54530153  0.03846702  0.35252699     0.13100
H119        H  0.45016000  0.03444941  0.35171480     0.13100
H120        H  0.54064240  0.02870904  0.25203205     0.26400
H121        H  0.45916184  0.02604625  0.25136627     0.26400
C122        C  0.18903812  0.98186804  0.08360681     0.01600
C123        C  0.23328623  0.00328884  0.07588630     0.04400
C124        C  0.27145345  0.00636400  0.09451989    -0.11700
C125        C  0.26616344  0.98677397  0.12069116     0.23700
C126        C  0.22315437  0.96266554  0.12788819    -0.12200
C127        C  0.18466777  0.96007436  0.10937413     0.05100
C128        C  0.30579205  0.99147551  0.14069439     0.27500
C129        C  0.33792598  0.95335535  0.14457907    -0.12900
C130        C  0.37402363  0.95699527  0.16445339     0.05600
C131        C  0.37852217  0.99906101  0.18020136    -0.08900
C132        C  0.34738313  0.03774431  0.17574179     0.06400
C133        C  0.31091079  0.03389413  0.15611454    -0.13300
Br134      Br  0.21710088  0.93376040  0.16335404    -0.05300
Br135      Br  0.24330619  0.02491425  0.03909825     0.00300
Br136      Br  0.41698366  0.90423162  0.17048005     0.00700
Br137      Br  0.26785784  0.08666427  0.15031624    -0.03700
Br138      Br  0.12588834  0.92739388  0.11969225     0.00800
Br139      Br  0.33121873  0.03738568  0.08430341    -0.03000
Br140      Br  0.33241735  0.89634300  0.12251886    -0.03800
Br141      Br  0.35538458  0.09618364  0.19637421     0.00100
C142        C  0.37419588  0.99793486  0.32107297     0.01600
C143        C  0.37325643  0.95885403  0.33933465     0.04400
C144        C  0.33620043  0.95462440  0.35871663    -0.11700
C145        C  0.29871360  0.98819963  0.35920565     0.23700
C146        C  0.29832669  0.02585748  0.34008125    -0.12200
C147        C  0.33652215  0.03144373  0.32152536     0.05100
C148        C  0.26078639  0.98514307  0.38051128     0.27500
C149        C  0.21713918  0.96045123  0.37554947    -0.12900
C150        C  0.18115039  0.95833505  0.39573390     0.05600
C151        C  0.18826390  0.98185168  0.42084811    -0.08900
C152        C  0.23239983  0.00599967  0.42585202     0.06400
C153        C  0.26850231  0.00741159  0.40580206    -0.13300
Br154      Br  0.24477955  0.06912381  0.33899095    -0.05300
Br155      Br  0.42163295  0.90995486  0.33701469     0.00300
Br156      Br  0.12146384  0.92478379  0.38832201     0.00700
Br157      Br  0.32897495  0.03983358  0.41287715    -0.03700
Br158      Br  0.33753126  0.08544130  0.29692665     0.00800
Br159      Br  0.33643447  0.90263969  0.38457216    -0.03000
Br160      Br  0.20658265  0.93037605  0.34078571    -0.03800
Br161      Br  0.24492256  0.03533288  0.46064510     0.00100
C162        C  0.62750415  0.01458003  0.18180277     0.01600
C163        C  0.63728541  0.97247491  0.16704610     0.04400
C164        C  0.67459550  0.97245430  0.14777086    -0.11700
C165        C  0.70148821  0.01484276  0.14278681     0.23700
C166        C  0.69101734  0.05717566  0.15720417    -0.12200
C167        C  0.65470119  0.05676861  0.17706321     0.05100
C168        C  0.74069800  0.01492339  0.12234594     0.27500
C169        C  0.78854812  0.00705290  0.13042340    -0.12900
C170        C  0.82562859  0.00693217  0.11095182     0.05600
C171        C  0.81482852  0.01383837  0.08335318    -0.08900
C172        C  0.76717634  0.02276531  0.07537723     0.06400
C173        C  0.73013983  0.02320687  0.09482438    -0.13300
Br174      Br  0.72602515  0.11581865  0.14941587    -0.05300
Br175      Br  0.60009116  0.91467830  0.17379467     0.00300
Br176      Br  0.89147694  0.99894303  0.12203365     0.00700
Br177      Br  0.66480664  0.03517002  0.08391743    -0.03700
Br178      Br  0.64240556  0.11366456  0.19815561     0.00800
Br179      Br  0.68922299  0.91436161  0.12829450    -0.03000
Br180      Br  0.80299428  0.99618358  0.16815707    -0.03800
Br181      Br  0.75271490  0.03491152  0.03783865     0.00100
C182        C  0.62490736  0.01072543  0.32292521     0.01600
C183        C  0.65046971  0.05323060  0.32930751     0.04400
C184        C  0.68844864  0.05220268  0.34812911    -0.11700
C185        C  0.70163513  0.00844205  0.36030774     0.23700
C186        C  0.67608791  0.96584671  0.35385166    -0.12200
C187        C  0.63746529  0.96709922  0.33543039     0.05100
C188        C  0.74211310  0.00736308  0.38001795     0.27500
C189        C  0.79009633  0.00670086  0.37073412    -0.12900
C190        C  0.82832222  0.00689561  0.38946964     0.05600
C191        C  0.81875596  0.00697252  0.41751244    -0.08900
C192        C  0.77086029  0.00669109  0.42678278     0.06400
C193        C  0.73263543  0.00738040  0.40811731    -0.13300
Br194      Br  0.69488053  0.90565071  0.36979317    -0.05300
Br195      Br  0.63345979  0.11269601  0.31191283     0.00300
Br196      Br  0.89383255  0.00636923  0.37683149     0.00700
Br197      Br  0.66718362  0.00876110  0.42100364    -0.03700
Br198      Br  0.60218652  0.90899240  0.32678331     0.00800
Br199      Br  0.72268975  0.11069690  0.35717779    -0.03000
Br200      Br  0.80326867  0.00504062  0.33233237    -0.03800
Br201      Br  0.75769831  0.00533797  0.46514374     0.00100
C202        C  0.99430539  0.36546477  0.18423426     0.01600
C203        C  0.95322114  0.34283612  0.17318345     0.04400
C204        C  0.95821486  0.30643234  0.15360548    -0.11700
C205        C  0.00431265  0.29257051  0.14493189     0.23700
C206        C  0.04544862  0.31512310  0.15607721    -0.12200
C207        C  0.04041860  0.35157369  0.17564258     0.05100
C208        C  0.00920034  0.25433636  0.12405716     0.27500
C209        C  0.01455647  0.20601991  0.13199393    -0.12900
C210        C  0.01690686  0.16952890  0.11224677     0.05600
C211        C  0.01315406  0.18113292  0.08453205    -0.08900
C212        C  0.00828952  0.22945827  0.07655560     0.06400
C213        C  0.00640057  0.26600875  0.09627209    -0.13300
Br214      Br  0.10860414  0.29614755  0.14446307    -0.05300
Br215      Br  0.89021979  0.36203553  0.18490691     0.00300
Br216      Br  0.02369376  0.10338409  0.12310055     0.00700
Br217      Br  0.99884685  0.33205174  0.08535676    -0.03700
Br218      Br  0.09656225  0.38327830  0.19052492     0.00800
Br219      Br  0.90195025  0.27534900  0.13855630    -0.03000
Br220      Br  0.01688511  0.18989434  0.17000674    -0.03800
Br221      Br  0.00465287  0.24551044  0.03854519     0.00100
C222        C  0.01833664  0.18282882  0.42014844     0.01600
C223        C  0.03494616  0.22905758  0.42763433     0.04400
C224        C  0.03079955  0.26772997  0.40938130    -0.11700
C225        C  0.01027658  0.26026947  0.38358839     0.23700
C226        C  0.99385694  0.21406382  0.37608640    -0.12200
C227        C  0.99821374  0.17539169  0.39426917     0.05100
C228        C  0.00750726  0.30061258  0.36396210     0.27500
C229        C  0.96495802  0.32717785  0.36148029    -0.12900
C230        C  0.96203992  0.36419724  0.34209292     0.05600
C231        C  0.00183343  0.37500395  0.32530578    -0.08900
C232        C  0.04495325  0.34964280  0.32857666     0.06400
C233        C  0.04756030  0.31208260  0.34758445    -0.13300
Br234      Br  0.96491265  0.20407384  0.34096154    -0.05300
Br235      Br  0.06183187  0.23995883  0.46316943     0.00300
Br236      Br  0.90345411  0.39982691  0.33827019     0.00700
Br237      Br  0.10566254  0.27548172  0.35092861    -0.03700
Br238      Br  0.97827790  0.11169015  0.38341461     0.00800
Br239      Br  0.05214467  0.33134965  0.41975257    -0.03000
Br240      Br  0.91065547  0.31228998  0.38448924    -0.03800
Br241      Br  0.10067311  0.36708468  0.30728572     0.00100
C242        C  0.97511648  0.61635814  0.17890914     0.01600
C243        C  0.01798454  0.63155865  0.16599485     0.04400
C244        C  0.01706913  0.66862364  0.14657368    -0.11700
C245        C  0.97363766  0.69188464  0.14063896     0.23700
C246        C  0.93072312  0.67648261  0.15333734    -0.12200
C247        C  0.93125100  0.63802585  0.17191804     0.05100
C248        C  0.97345363  0.73299055  0.12133875     0.27500
C249        C  0.98000026  0.78034237  0.13096422    -0.12900
C250        C  0.98196231  0.81909546  0.11257808     0.05600
C251        C  0.97831383  0.81055631  0.08451240    -0.08900
C252        C  0.97040061  0.76340381  0.07492353     0.06400
C253        C  0.96764143  0.72472351  0.09332624    -0.13300
Br254      Br  0.87156341  0.70916252  0.14578333    -0.05300
Br255      Br  0.07820003  0.60216376  0.17533177     0.00300
Br256      Br  0.98856100  0.88407116  0.12573672     0.00700
Br257      Br  0.95550179  0.66034659  0.08034194    -0.03700
Br258      Br  0.87206004  0.61539495  0.18818119     0.00800
Br259      Br  0.07543677  0.68812204  0.12825375    -0.03000
Br260      Br  0.98610199  0.79187718  0.16938306    -0.03800
Br261      Br  0.96317771  0.75193199  0.03654650     0.00100
C262        C  0.98697999  0.80987568  0.42020493     0.01600
C263        C  0.00697584  0.76456661  0.42593184     0.04400
C264        C  0.00426712  0.72744147  0.40657672    -0.11700
C265        C  0.98265559  0.73566644  0.38122459     0.23700
C266        C  0.96296653  0.78083851  0.37538779    -0.12200
C267        C  0.96499827  0.81783147  0.39483617     0.05100
C268        C  0.98299183  0.69757348  0.36017124     0.27500
C269        C  0.02196636  0.69494290  0.34199848    -0.12900
C270        C  0.02336316  0.65820483  0.32246158     0.05600
C271        C  0.98511075  0.62464354  0.32053673    -0.08900
C272        C  0.94549127  0.62801898  0.33831201     0.06400
C273        C  0.94482190  0.66396296  0.35838671    -0.13300
Br274      Br  0.93387862  0.79193807  0.34046907    -0.05300
Br275      Br  0.03703388  0.75239767  0.46048104     0.00300
Br276      Br  0.07799187  0.65345462  0.29853185     0.00700
Br277      Br  0.89200657  0.66707622  0.38366576    -0.03700
Br278      Br  0.94028629  0.88026813  0.38590960     0.00800
Br279      Br  0.02979232  0.66489816  0.41467718    -0.03000
Br280      Br  0.07342578  0.74193933  0.34399551    -0.03800
Br281      Br  0.89177912  0.58390781  0.33475336     0.00100
C282        C  0.98792682  0.84844752  0.94088959     0.42700
N283        N  0.01224297  0.89365623  0.97342485     0.01600
C284        C  0.87729567  0.05231012  0.54962648    -0.06300
H285        H  0.87821016  0.08614381  0.94504770     0.07100
C286        C  0.05851090  0.12020005  0.95326379    -0.06700
Co287      Co  0.93064515  0.94169960  0.50175845     0.74200
N288        N  0.90664126  0.03047931  0.97081906    -0.25800
Co289      Co  0.94727918  0.06532798  0.00081028     0.74100
C290        C  0.01780520  0.14317662  0.94005218     0.42800
N291        N  0.10365553  0.00726720  0.97359022     0.01200
N292        N  0.99152382  0.09711349  0.97170419     0.01300
N293        N  0.86697742  0.97145693  0.54984125    -0.46700
H294        H  0.90885999  0.86797519  0.94838095     0.07100
N295        N  0.90030345  0.98338540  0.97124065     0.01600
N296        N  0.98911629  0.09843477  0.53085867     0.01300
C297        C  0.01288535  0.14265682  0.56391340     0.42900
N298        N  0.09769833  0.96009662  0.97392738    -0.25300
C299        C  0.94207505  0.87454152  0.55173340    -0.06200
N300        N  0.02730308  0.86321141  0.95468856    -0.46400
N301        N  0.97381246  0.12876322  0.54959705    -0.46600
C302        C  0.98192430  0.85098185  0.56518402     0.42700
N303        N  0.89757130  0.98537536  0.53065326     0.01600
N304        N  0.09551924  0.96080533  0.53291178    -0.25300
N305        N  0.96521479  0.89926300  0.97300845    -0.25800
N306        N  0.10174018  0.00791825  0.53286946     0.01200
H307        H  0.12728584  0.90388670  0.55632041     0.07100
H308        H  0.09200570  0.12272947  0.55710346     0.07100
N309        N  0.90399439  0.03244707  0.53005488    -0.25900
N310        N  0.03862817  0.09221619  0.97257709    -0.25500
N311        N  0.00962821  0.89477162  0.53276444     0.01600
C312        C  0.85865566  0.00669297  0.93724496     0.43000
C313        C  0.12534129  0.94103341  0.95444326    -0.06700
N314        N  0.03610946  0.09242561  0.53167842    -0.25500
H315        H  0.09658821  0.12524647  0.94967668     0.07100
N316        N  0.87119094  0.96778490  0.95181049    -0.46700
H317        H  0.12935820  0.90308757  0.95046332     0.07100
C318        C  0.14755405  0.98292218  0.56480794     0.42800
C319        C  0.94664270  0.87205785  0.95307074    -0.06200
Co320      Co  0.05428736  0.92653189  0.50328185     0.73800
N321        N  0.13452542  0.02189522  0.95474555    -0.46400
C322        C  0.85334245  0.01178181  0.56282508     0.43100
N323        N  0.02263331  0.86442099  0.55208367    -0.46400
Co324      Co  0.07080802  0.05048714  0.00269851     0.73900
C325        C  0.05436051  0.11905425  0.55199604    -0.06700
C326        C  0.88146008  0.04847991  0.95001931    -0.06300
N327        N  0.96265622  0.90090915  0.53202681    -0.25800
N328        N  0.97762293  0.12754394  0.95272354    -0.46600
H329        H  0.87415202  0.09034345  0.55361424     0.07100
C330        C  0.12293765  0.94182969  0.55244244    -0.06700
Cl331      Cl  0.00078890  0.99601912  0.50214953    -0.49700
C332        C  0.14953761  0.98219098  0.94164854     0.42800
H333        H  0.90389080  0.87071962  0.55537919     0.07000
N334        N  0.13304350  0.02255962  0.55142555    -0.46400
N335        N  0.99486748  0.42161899  0.75360397    -0.36400
N336        N  0.99071189  0.49798143  0.79415155    -0.56900
N337        N  0.98414025  0.56920226  0.75052915    -0.36400
N338        N  0.98178819  0.49232634  0.71016056    -0.56900
C339        C  0.99023999  0.39514640  0.77652444     0.27200
C340        C  0.98675024  0.39197495  0.73231169     0.27200
C341        C  0.97806020  0.59796904  0.77236782     0.27200
C342        C  0.97418143  0.59529969  0.72809899     0.27200
C343        C  0.00151419  0.46082676  0.81061333     0.35800
C344        C  0.99640046  0.53842922  0.80900538     0.35800
C345        C  0.98794983  0.45269344  0.69474127     0.35800
C346        C  0.98178025  0.53034184  0.69303715     0.35800
C347        C  0.97952778  0.34786874  0.76966250    -0.21700
C348        C  0.97762675  0.34581886  0.74180185    -0.21700
C349        C  0.96447540  0.64318923  0.76368782    -0.21700
C350        C  0.96263289  0.64170750  0.73585528    -0.21700
C351        C  0.01366489  0.47767650  0.83617261    -0.22700
C352        C  0.01045824  0.52683071  0.83515692    -0.22700
C353        C  0.99081683  0.46549090  0.66760836    -0.22700
C354        C  0.98662255  0.51452824  0.66651622    -0.22700
C355        C  0.99787258  0.41172843  0.80340568    -0.18100
C356        C  0.98938348  0.40482556  0.70451333    -0.18100
C357        C  0.97680108  0.57916932  0.70077371    -0.18100
C358        C  0.98665883  0.58556679  0.79985966    -0.18100
H359        H  0.97416167  0.31777705  0.78329905     0.15700
H360        H  0.97037150  0.31387817  0.72990553     0.14800
H361        H  0.95738993  0.67440030  0.77607992     0.14800
H362        H  0.95383406  0.67170050  0.72290624     0.14800
H363        H  0.02341894  0.45671576  0.85377400     0.13100
H364        H  0.01734472  0.55122106  0.85183905     0.13100
H365        H  0.99513115  0.44193544  0.65033828     0.13100
H366        H  0.98726143  0.53605009  0.64823262     0.13100
H367        H  0.00568577  0.45722394  0.75244155     0.26400
H368        H  0.99647978  0.53443725  0.75086384     0.26400
N369        N  0.57499212  0.01486391  0.75211885    -0.36400
N370        N  0.50232849  0.00861483  0.70980542    -0.56900
N371        N  0.42747706  0.00617265  0.75106185    -0.36400
N372        N  0.50030207  0.00690324  0.79342883    -0.56900
C373        C  0.60277199  0.00673936  0.73010708     0.27200
C374        C  0.60180991  0.00536505  0.77429475     0.27200
C375        C  0.40234164  0.99297771  0.72873981     0.27200
C376        C  0.40119374  0.99259160  0.77292264     0.27200
C377        C  0.54107883  0.01939937  0.69436876     0.35800
C378        C  0.46347200  0.01433271  0.69383293     0.35800
C379        C  0.53855381  0.01692368  0.80941810     0.35800
C380        C  0.46062788  0.01341275  0.80877401     0.35800
C381        C  0.64804502  0.99260704  0.73837581    -0.21700
C382        C  0.64745196  0.99175072  0.76626444    -0.21700
C383        C  0.35939481  0.97118969  0.73648173    -0.21700
C384        C  0.35872525  0.97081171  0.76438857    -0.21700
C385        C  0.52683867  0.03164467  0.66836450    -0.22700
C386        C  0.47753392  0.02846590  0.66803136    -0.22700
C387        C  0.52318215  0.02945645  0.83517018    -0.22700
C388        C  0.47373261  0.02749445  0.83472444    -0.22700
C389        C  0.58916754  0.01417974  0.70281657    -0.18100
C390        C  0.58706244  0.01130427  0.80156410    -0.18100
C391        C  0.41319677  0.00218670  0.80029433    -0.18100
C392        C  0.41595329  0.00268454  0.70162855    -0.18100
H393        H  0.67850294  0.98415745  0.72564686     0.14800
H394        H  0.67741585  0.98255035  0.77914852     0.14800
H395        H  0.33128437  0.95733464  0.72338081     0.14800
H396        H  0.32995516  0.95663810  0.77696819     0.14800
H397        H  0.54964332  0.04097139  0.65130702     0.13100
H398        H  0.45472000  0.03480507  0.65066563     0.13100
H399        H  0.54530203  0.03843701  0.85252792     0.13100
H400        H  0.45016028  0.03442239  0.85171565     0.13100
H401        H  0.54064071  0.02869230  0.75203228     0.26400
H402        H  0.45916436  0.02603446  0.75136592     0.26400
C403        C  0.18904000  0.98186186  0.58360503     0.01600
C404        C  0.23328822  0.00328220  0.57588434     0.04400
C405        C  0.27145524  0.00635790  0.59451799    -0.11700
C406        C  0.26616492  0.98676857  0.62068944     0.23700
C407        C  0.22315566  0.96266044  0.62788661    -0.12200
C408        C  0.18466914  0.96006918  0.60937255     0.05100
C409        C  0.30579372  0.99147014  0.64069255     0.27500
C410        C  0.33792701  0.95334957  0.64457759    -0.12900
C411        C  0.37402476  0.95698938  0.66445185     0.05600
C412        C  0.37852400  0.99905540  0.68019946    -0.08900
C413        C  0.34738603  0.03773935  0.67573930     0.06400
C414        C  0.31091356  0.03388929  0.65611212    -0.13300
Br415      Br  0.21710147  0.93375631  0.66335267    -0.05300
Br416      Br  0.24330803  0.02490693  0.53909619     0.00300
Br417      Br  0.41698371  0.90422497  0.67047900     0.00700
Br418      Br  0.26786221  0.08666046  0.65031298    -0.03700
Br419      Br  0.12588879  0.92739040  0.61969085     0.00800
Br420      Br  0.33122053  0.03737971  0.58430154    -0.03000
Br421      Br  0.33241776  0.89633703  0.62251763    -0.03800
Br422      Br  0.35538897  0.09617916  0.69637096     0.00100
C423        C  0.37419406  0.99791966  0.82107105     0.01600
C424        C  0.37325054  0.95883673  0.83933121     0.04400
C425        C  0.33619406  0.95460867  0.85871306    -0.11700
C426        C  0.29871063  0.98818772  0.85920337     0.23700
C427        C  0.29832742  0.02584748  0.84008015    -0.12200
C428        C  0.33652366  0.03143216  0.82152458     0.05100
C429        C  0.26078390  0.98513371  0.88050947     0.27500
C430        C  0.21713592  0.96044252  0.87554876    -0.12900
C431        C  0.18114824  0.95832793  0.89573389     0.05600
C432        C  0.18826330  0.98184603  0.92084754    -0.08900
C433        C  0.23240003  0.00599314  0.92585036     0.06400
C434        C  0.26850167  0.00740304  0.90579987    -0.13300
Br435      Br  0.24478388  0.06911832  0.83899073    -0.05300
Br436      Br  0.42162229  0.90993316  0.83700943     0.00300
Br437      Br  0.12146166  0.92477545  0.88832400     0.00700
Br438      Br  0.32897567  0.03982335  0.91287371    -0.03700
Br439      Br  0.33753876  0.08543283  0.79692805     0.00800
Br440      Br  0.33642289  0.90262115  0.88456674    -0.03000
Br441      Br  0.20657661  0.93036656  0.84078546    -0.03800
Br442      Br  0.24492518  0.03532668  0.96064304     0.00100
C443        C  0.62750503  0.01456902  0.68180249     0.01600
C444        C  0.63727543  0.97246858  0.66703904     0.04400
C445        C  0.67458397  0.97244869  0.64776288    -0.11700
C446        C  0.70148668  0.01483323  0.64278519     0.23700
C447        C  0.69102714  0.05716158  0.65720953    -0.12200
C448        C  0.65471211  0.05675348  0.67706915     0.05100
C449        C  0.74069648  0.01491401  0.62234442     0.27500
C450        C  0.78854464  0.00703083  0.63042119    -0.12900
C451        C  0.82562531  0.00691080  0.61094984     0.05600
C452        C  0.81482737  0.01383076  0.58335206    -0.08900
C453        C  0.76717726  0.02276971  0.57537678     0.06400
C454        C  0.73014055  0.02321081  0.59482384    -0.13300
Br455      Br  0.72604943  0.11579984  0.64943004    -0.05300
Br456      Br  0.60006938  0.91467670  0.67378005     0.00300
Br457      Br  0.89147159  0.99890446  0.62203117     0.00700
Br458      Br  0.66481023  0.03519213  0.58391820    -0.03700
Br459      Br  0.64243187  0.11364242  0.69817058     0.00800
Br460      Br  0.68919553  0.91436218  0.62827649    -0.03000
Br461      Br  0.80298808  0.99614418  0.66815362    -0.03800
Br462      Br  0.75271884  0.03493086  0.53783923     0.00100
C463        C  0.62490801  0.01070603  0.82292459     0.01600
C464        C  0.65046925  0.05321287  0.82930499     0.04400
C465        C  0.68844679  0.05218913  0.84812757    -0.11700
C466        C  0.70163410  0.00843070  0.86030836     0.23700
C467        C  0.67608833  0.96583360  0.85385402    -0.12200
C468        C  0.63746608  0.96708221  0.83543236     0.05100
C469        C  0.74211187  0.00735557  0.88001877     0.27500
C470        C  0.79009512  0.00668952  0.87073514    -0.12900
C471        C  0.82832098  0.00688543  0.88947073     0.05600
C472        C  0.81875462  0.00696841  0.91751347    -0.08900
C473        C  0.77085886  0.00669105  0.92678362     0.06400
C474        C  0.73263409  0.00737874  0.90811804    -0.13300
Br475      Br  0.69488220  0.90564068  0.86979879    -0.05300
Br476      Br  0.63345998  0.11267473  0.81190599     0.00300
Br477      Br  0.89383130  0.00635131  0.87683283     0.00700
Br478      Br  0.66718227  0.00876484  0.92100404    -0.03700
Br479      Br  0.60218816  0.90897346  0.82678831     0.00800
Br480      Br  0.72268378  0.11068621  0.85717526    -0.03000
Br481      Br  0.80326750  0.00502215  0.83233355    -0.03800
Br482      Br  0.75769640  0.00534398  0.96514450     0.00100
C483        C  0.99430254  0.36545744  0.68423836     0.01600
C484        C  0.95321785  0.34283142  0.67318643     0.04400
C485        C  0.95821089  0.30642560  0.65360959    -0.11700
C486        C  0.00430850  0.29255901  0.64493827     0.23700
C487        C  0.04544491  0.31510856  0.65608497    -0.12200
C488        C  0.04041557  0.35156123  0.67564921     0.05100
C489        C  0.00919565  0.25432557  0.62406303     0.27500
C490        C  0.01454783  0.20600811  0.63199886    -0.12900
C491        C  0.01689839  0.16951835  0.61225088     0.05600
C492        C  0.01315071  0.18112474  0.58453626    -0.08900
C493        C  0.00829014  0.22945104  0.57656080     0.06400
C494        C  0.00640040  0.26600014  0.59627809    -0.13300
Br495      Br  0.10860016  0.29612655  0.64447379    -0.05300
Br496      Br  0.89021680  0.36203749  0.68490667     0.00300
Br497      Br  0.02367867  0.10337209  0.62310336     0.00700
Br498      Br  0.99885190  0.33204448  0.58536401    -0.03700
Br499      Br  0.09655998  0.38326231  0.69053302     0.00800
Br500      Br  0.90194558  0.27534696  0.63855829    -0.03000
Br501      Br  0.01687200  0.18987954  0.67001136    -0.03800
Br502      Br  0.00465973  0.24550658  0.53855069     0.00100
C503        C  0.01833647  0.18283145  0.92014767     0.01600
C504        C  0.03496684  0.22905473  0.92763065     0.04400
C505        C  0.03082131  0.26772935  0.90937893    -0.11700
C506        C  0.01027901  0.26027668  0.88359022     0.23700
C507        C  0.99383841  0.21407686  0.87609115    -0.12200
C508        C  0.99819363  0.17540244  0.89427249     0.05100
C509        C  0.00751113  0.30062112  0.86396473     0.27500
C510        C  0.96496707  0.32719631  0.86148839    -0.12900
C511        C  0.96204905  0.36421506  0.84210062     0.05600
C512        C  0.00183801  0.37501188  0.82530811    -0.08900
C513        C  0.04495346  0.34964142  0.82857382     0.06400
C514        C  0.04755967  0.31208101  0.84758143    -0.13300
Br515      Br  0.96486885  0.20409789  0.84097183    -0.05300
Br516      Br  0.06187811  0.23994752  0.96316050     0.00300
Br517      Br  0.90346872  0.39985581  0.83828398     0.00700
Br518      Br  0.10565387  0.27546501  0.85091686    -0.03700
Br519      Br  0.97822874  0.11170814  0.88342060     0.00800
Br520      Br  0.05219493  0.33134188  0.91974627    -0.03000
Br521      Br  0.91067099  0.31232218  0.88450490    -0.03800
Br522      Br  0.10066853  0.36707015  0.80727556     0.00100
C523        C  0.97512056  0.61635074  0.67890495     0.01600
C524        C  0.01798780  0.63155111  0.66598974     0.04400
C525        C  0.01707054  0.66861394  0.64656731    -0.11700
C526        C  0.97363803  0.69187299  0.64063238     0.23700
C527        C  0.93072432  0.67647058  0.65333151    -0.12200
C528        C  0.93125408  0.63801572  0.67191333     0.05100
C529        C  0.97345256  0.73297947  0.62133262     0.27500
C530        C  0.97999849  0.78033092  0.63095870    -0.12900
C531        C  0.98195997  0.81908473  0.61257304     0.05600
C532        C  0.97831155  0.81054681  0.58450722    -0.08900
C533        C  0.97039795  0.76339473  0.57491778     0.06400
C534        C  0.96763916  0.72471365  0.59332007    -0.13300
Br535      Br  0.87156328  0.70914805  0.64577740    -0.05300
Br536      Br  0.07820438  0.60215931  0.67532745     0.00300
Br537      Br  0.98855713  0.88405985  0.62573260     0.00700
Br538      Br  0.95549759  0.66033739  0.58033520    -0.03700
Br539      Br  0.87206428  0.61538405  0.68817755     0.00800
Br540      Br  0.07543710  0.68811258  0.62824642    -0.03000
Br541      Br  0.98609951  0.79186418  0.66937777    -0.03800
Br542      Br  0.96317313  0.75192465  0.53654063     0.00100
C543        C  0.98698214  0.80987264  0.92020775     0.01600
C544        C  0.00698147  0.76456432  0.92593303     0.04400
C545        C  0.00427498  0.72744067  0.90657679    -0.11700
C546        C  0.98266193  0.73566633  0.88122515     0.23700
C547        C  0.96296881  0.78083733  0.87539015    -0.12200
C548        C  0.96499893  0.81782887  0.89483948     0.05100
C549        C  0.98299978  0.69757534  0.86017048     0.27500
C550        C  0.02197283  0.69494972  0.84199636    -0.12900
C551        C  0.02337042  0.65821401  0.82245794     0.05600
C552        C  0.98512045  0.62464977  0.82053314    -0.08900
C553        C  0.94550222  0.62802057  0.83830965     0.06400
C554        C  0.94483203  0.66396231  0.85838565    -0.13300
Br555      Br  0.93387668  0.79193696  0.84047255    -0.05300
Br556      Br  0.03704216  0.75239471  0.96048138     0.00300
Br557      Br  0.07799727  0.65347062  0.79852636     0.00700
Br558      Br  0.89201814  0.66706924  0.88366596    -0.03700
Br559      Br  0.94028377  0.88026471  0.88591441     0.00800
Br560      Br  0.02980472  0.66489844  0.91467515    -0.03000
Br561      Br  0.07342922  0.74194931  0.84399371    -0.03800
Br562      Br  0.89179310  0.58390546  0.83475131     0.00100
loop_ 
_geom_bond_atom_site_label_1 
_geom_bond_atom_site_label_2 
_geom_bond_distance 
_geom_bond_site_symmetry_2 
_ccdc_geom_bond_type 
C1           N19   1.350   1_655  A
C1           C38   1.460       .  S
C1          C262   1.481       .  S
N2           N19   1.325       .  A
N2           N24   1.320   1_455  A
N2         Co320   2.086       .  S
C3           N28   1.341       .  A
C3           C41   1.456       .  S
C3           H48   1.081       .  S
H4           C45   1.081       .  S
C5           N29   1.344       .  A
C5            C9   1.462       .  S
C5           H34   1.081       .  S
Co6          N46   2.083       .  S
Co6          N22   2.093       .  S
Co6         N305   2.088   1_554  S
Co6         N295   2.086   1_554  S
Co6         Cl50   2.453   1_655  S
N7           C45   1.343       .  A
N7           N14   1.320   1_545  A
N7           Co8   2.094       .  S
Co8          N11   2.079       .  S
Co8         N309   2.082       .  S
Co8         N296   2.092       .  S
Co8        Cl331   2.453   1_645  S
C9           N47   1.347   1_455  A
C9          C222   1.477       .  S
N10          N17   1.321   1_545  A
N10          N40   1.325       .  A
N10         Co43   2.090       .  S
N11          N29   1.321   1_655  A
N11          N47   1.324       .  A
N12          C41   1.351   1_565  A
N12          N22   1.326       .  A
H13          C38   1.081       .  S
N14          N35   1.325       .  A
N14        Co287   2.086       .  S
N15          N33   1.321   1_655  A
N15          N20   1.325       .  A
N15        Co289   2.092       .  S
C16          N20   1.350   1_455  A
C16          C44   1.459       .  S
C16         C211   1.477       .  S
N17          C32   1.344       .  A
N17        Co320   2.096       .  S
C18          N46   1.341       .  A
C18          C21   1.456       .  S
C18          H52   1.081       .  S
C21          N42   1.352   1_655  A
C21         C251   1.477       .  S
N22          N28   1.320   1_565  A
N23          C49   1.342       .  A
N23          N25   1.320   1_565  A
N23         Co39   2.083       .  S
N24          C38   1.341       .  A
N24        Co287   2.088       .  S
N25          N53   1.325       .  A
N25        Co324   2.094       .  S
H26          C49   1.082       .  S
H27          C44   1.081       .  S
N28        Co289   2.082       .  S
N29         Co43   2.094       .  S
N30          N42   1.327       .  A
N30          N46   1.321   1_455  A
N30         Co39   2.099       .  S
C31          N35   1.349   1_545  A
C31          C45   1.461       .  S
C31         C191   1.477       .  S
C32          C51   1.463       .  S
C32          H36   1.081       .  S
N33          C44   1.343       .  A
N33        Co324   2.089       .  S
C37          N53   1.352   1_565  A
C37          C49   1.460       .  S
C37         C122   1.482       .  S
Co39        N283   2.086   1_554  S
Co39        N298   2.096   1_554  S
Co39        Cl50   2.457       .  S
N40          C51   1.351   1_545  A
C41         C171   1.475       .  S
Co43        N306   2.094       .  S
Co43        N314   2.089       .  S
Co43       Cl331   2.453   1_545  S
Cl50       Co289   2.453   1_465  S
Cl50       Co324   2.453   1_565  S
C51         C151   1.487       .  S
N54          C59   1.353       .  A
N54          C58   1.354       .  A
N54          H86   1.034   1_655  S
N55          C62   1.352   1_655  A
N55          C63   1.351       .  A
N56          C61   1.354       .  A
N56          C60   1.354       .  A
N56          H87   1.031       .  S
N57          C64   1.353       .  A
N57          C65   1.353       .  A
C58          C66   1.387       .  A
C58          C74   1.419       .  A
C59          C75   1.418       .  A
C59          C67   1.387       .  A
C60          C68   1.387       .  A
C60          C77   1.420       .  A
C61          C76   1.422       .  A
C61          C69   1.389       .  A
C62          C74   1.414   1_455  A
C62          C70   1.386       .  A
C63          C77   1.417       .  A
C63          C71   1.387   1_655  A
C64          C72   1.386       .  A
C64          C75   1.418       .  A
C65          C73   1.387       .  A
C65          C76   1.420       .  A
C66          H78   1.082       .  S
C66          C67   1.376       .  A
C67          H79   1.082       .  S
C68          H80   1.082       .  S
C68          C69   1.374       .  A
C69          H81   1.082       .  S
C70          H82   1.082       .  S
C70          C71   1.373       .  A
C71          H83   1.082       .  S
C72          H84   1.082       .  S
C72          C73   1.372       .  A
C73          H85   1.082       .  S
C74         C231   1.492   1_655  S
C75         C202   1.491       .  S
C76         C242   1.495       .  S
C77         C271   1.492       .  S
N88          C93   1.353       .  A
N88          C92   1.353       .  A
N88         H120   1.035       .  S
N89          C96   1.350       .  A
N89          C97   1.350       .  A
N90          C95   1.353   1_545  A
N90          C94   1.353   1_545  A
N90         H121   1.035       .  S
N91          C98   1.352       .  A
N91          C99   1.352       .  A
C92         C100   1.387   1_545  A
C92         C108   1.414       .  A
C93         C109   1.416       .  A
C93         C101   1.388   1_545  A
C94         C102   1.386       .  A
C94         C111   1.414   1_565  A
C95         C110   1.415   1_565  A
C95         C103   1.387       .  A
C96         C108   1.411       .  A
C96         C104   1.386       .  A
C97         C111   1.410       .  A
C97         C105   1.386       .  A
C98         C106   1.386       .  A
C98         C109   1.415       .  A
C99         C107   1.386       .  A
C99         C110   1.416       .  A
C100        H112   1.082       .  S
C100        C101   1.375       .  A
C101        H113   1.082       .  S
C102        H114   1.082       .  S
C102        C103   1.376       .  A
C103        H115   1.082       .  S
C104        H116   1.082       .  S
C104        C105   1.374       .  A
C105        H117   1.082       .  S
C106        H118   1.082       .  S
C106        C107   1.377       .  A
C107        H119   1.082       .  S
C108        C162   1.486       .  S
C109        C182   1.491       .  S
C110        C142   1.495   1_545  S
C111        C131   1.487   1_545  S
C122        C123   1.413   1_565  A
C122        C127   1.412       .  A
C123        C124   1.407       .  A
C123       Br135   1.930       .  S
C124        C125   1.407   1_545  A
C124       Br139   1.930       .  S
C125        C128   1.485       .  S
C125        C126   1.409       .  A
C126        C127   1.409       .  A
C126       Br134   1.931       .  S
C127       Br138   1.929       .  S
C128        C129   1.410       .  A
C128        C133   1.410   1_565  A
C129        C130   1.407       .  A
C129       Br140   1.929       .  S
C130        C131   1.409       .  A
C130       Br136   1.929       .  S
C131        C132   1.408   1_565  A
C132        C133   1.406       .  A
C132       Br141   1.929       .  S
C133       Br137   1.929       .  S
C142        C143   1.412       .  A
C142        C147   1.413   1_565  A
C143        C144   1.409       .  A
C143       Br155   1.930       .  S
C144        C145   1.410       .  A
C144       Br159   1.928       .  S
C145        C148   1.490       .  S
C145        C146   1.410   1_565  A
C146        C147   1.409       .  A
C146       Br154   1.929       .  S
C147       Br158   1.931       .  S
C148        C149   1.410       .  A
C148        C153   1.408   1_565  A
C149        C150   1.412       .  A
C149       Br160   1.929       .  S
C150        C151   1.414       .  A
C150       Br156   1.930       .  S
C151        C152   1.414   1_565  A
C152        C153   1.409       .  A
C152       Br161   1.930       .  S
C153       Br157   1.931       .  S
C162        C163   1.409   1_545  A
C162        C167   1.408       .  A
C163        C164   1.407       .  A
C163       Br175   1.930       .  S
C164        C165   1.410   1_565  A
C164       Br179   1.929       .  S
C165        C168   1.484       .  S
C165        C166   1.410       .  A
C166        C167   1.406       .  A
C166       Br174   1.928       .  S
C167       Br178   1.929       .  S
C168        C169   1.410       .  A
C168        C173   1.408       .  A
C169        C170   1.409       .  A
C169       Br180   1.929   1_545  S
C170        C171   1.408       .  A
C170       Br176   1.929   1_545  S
C171        C172   1.409       .  A
C172        C173   1.407       .  A
C172       Br181   1.925       .  S
C173       Br177   1.930       .  S
C182        C183   1.408       .  A
C182        C187   1.410   1_545  A
C183        C184   1.408       .  A
C183       Br195   1.929       .  S
C184        C185   1.411       .  A
C184       Br199   1.928       .  S
C185        C188   1.489       .  S
C185        C186   1.411   1_545  A
C186        C187   1.409       .  A
C186       Br194   1.929       .  S
C187       Br198   1.929       .  S
C188        C189   1.411       .  A
C188        C193   1.410       .  A
C189        C190   1.410       .  A
C189       Br200   1.929       .  S
C190        C191   1.408       .  A
C190       Br196   1.926       .  S
C191        C192   1.409       .  A
C192        C193   1.408       .  A
C192       Br201   1.926       .  S
C193       Br197   1.929       .  S
C202        C203   1.409       .  A
C202        C207   1.410   1_655  A
C203        C204   1.408       .  A
C203       Br215   1.928       .  S
C204        C205   1.410   1_655  A
C204       Br219   1.928       .  S
C205        C208   1.488       .  S
C205        C206   1.411       .  A
C206        C207   1.408       .  A
C206       Br214   1.928       .  S
C207       Br218   1.930       .  S
C208        C209   1.410       .  A
C208        C213   1.410       .  A
C209        C210   1.409       .  A
C209       Br220   1.928       .  S
C210        C211   1.408       .  A
C210       Br216   1.929       .  S
C211        C212   1.409       .  A
C212        C213   1.409       .  A
C212       Br221   1.930       .  S
C213       Br217   1.929   1_455  S
C222        C223   1.411       .  A
C222        C227   1.408   1_455  A
C223        C224   1.409       .  A
C223       Br235   1.929       .  S
C224        C225   1.409       .  A
C224       Br239   1.930       .  S
C225        C228   1.485       .  S
C225        C226   1.409   1_455  A
C226        C227   1.407       .  A
C226       Br234   1.930       .  S
C227       Br238   1.927       .  S
C228        C229   1.410   1_455  A
C228        C233   1.409       .  A
C229        C230   1.408       .  A
C229       Br240   1.929       .  S
C230        C231   1.411   1_655  A
C230       Br236   1.929       .  S
C231        C232   1.410       .  A
C232        C233   1.406       .  A
C232       Br241   1.928       .  S
C233       Br237   1.930       .  S
C242        C243   1.411   1_655  A
C242        C247   1.412       .  A
C243        C244   1.408       .  A
C243       Br255   1.931       .  S
C244        C245   1.410   1_455  A
C244       Br259   1.929       .  S
C245        C248   1.488       .  S
C245        C246   1.409       .  A
C246        C247   1.409       .  A
C246       Br254   1.928       .  S
C247       Br258   1.929       .  S
C248        C249   1.411       .  A
C248        C253   1.410       .  A
C249        C250   1.409       .  A
C249       Br260   1.929       .  S
C250        C251   1.408       .  A
C250       Br256   1.928       .  S
C251        C252   1.410       .  A
C252        C253   1.409       .  A
C252       Br261   1.929       .  S
C253       Br257   1.929       .  S
C262        C263   1.414   1_655  A
C262        C267   1.412       .  A
C263        C264   1.408       .  A
C263       Br275   1.931       .  S
C264        C265   1.408   1_455  A
C264       Br279   1.931       .  S
C265        C268   1.484       .  S
C265        C266   1.408       .  A
C266        C267   1.408       .  A
C266       Br274   1.930       .  S
C267       Br278   1.928       .  S
C268        C269   1.409   1_655  A
C268        C273   1.409       .  A
C269        C270   1.406       .  A
C269       Br280   1.929       .  S
C270        C271   1.410   1_455  A
C270       Br276   1.929       .  S
C271        C272   1.412       .  A
C272        C273   1.408       .  A
C272       Br281   1.930       .  S
C273       Br277   1.929       .  S
C282        N300   1.350   1_655  A
C282        C319   1.460       .  S
C282        C543   1.481       .  S
N283        N300   1.325       .  A
N283        N305   1.320   1_455  A
C284        N309   1.341       .  A
C284        C322   1.456       .  S
C284        H329   1.081       .  S
H285        C326   1.081       .  S
C286        N310   1.344       .  A
C286        C290   1.462       .  S
C286        H315   1.081       .  S
Co287       N327   2.083       .  S
Co287       N303   2.093       .  S
Co287      Cl331   2.453   1_655  S
N288        C326   1.343       .  A
N288        N295   1.320   1_545  A
N288       Co289   2.094   1_556  S
Co289       N292   2.079   1_554  S
C290        N328   1.347   1_455  A
C290        C503   1.477       .  S
N291        N298   1.321   1_545  A
N291        N321   1.325       .  A
N291       Co324   2.090   1_556  S
N292        N310   1.321   1_655  A
N292        N328   1.324       .  A
N293        C322   1.351   1_565  A
N293        N303   1.326       .  A
H294        C319   1.081       .  S
N295        N316   1.325       .  A
N296        N314   1.321   1_655  A
N296        N301   1.325       .  A
C297        N301   1.350   1_455  A
C297        C325   1.459       .  S
C297        C492   1.477       .  S
N298        C313   1.344       .  A
C299        N327   1.341       .  A
C299        C302   1.456       .  S
C299        H333   1.081       .  S
C302        N323   1.352   1_655  A
C302        C532   1.477       .  S
N303        N309   1.320   1_565  A
N304        C330   1.342       .  A
N304        N306   1.320   1_565  A
N304       Co320   2.083       .  S
N305        C319   1.341       .  A
N306        N334   1.325       .  A
H307        C330   1.081       .  S
H308        C325   1.081       .  S
N310       Co324   2.094   1_556  S
N311        N323   1.327       .  A
N311        N327   1.321   1_455  A
N311       Co320   2.099       .  S
C312        N316   1.349   1_545  A
C312        C326   1.461       .  S
C312        C472   1.477       .  S
C313        C332   1.463       .  S
C313        H317   1.081       .  S
N314        C325   1.343       .  A
C318        N334   1.352   1_565  A
C318        C330   1.460       .  S
C318        C403   1.482       .  S
Co320      Cl331   2.457       .  S
N321        C332   1.351   1_545  A
C322        C452   1.475       .  S
C332        C432   1.487       .  S
N335        C340   1.353       .  A
N335        C339   1.354       .  A
N335        H367   1.033   1_655  S
N336        C343   1.352   1_655  A
N336        C344   1.351       .  A
N337        C342   1.354       .  A
N337        C341   1.354       .  A
N337        H368   1.031       .  S
N338        C345   1.353       .  A
N338        C346   1.353       .  A
C339        C347   1.387       .  A
C339        C355   1.419       .  A
C340        C356   1.418       .  A
C340        C348   1.387       .  A
C341        C349   1.387       .  A
C341        C358   1.420       .  A
C342        C357   1.422       .  A
C342        C350   1.389       .  A
C343        C355   1.414   1_455  A
C343        C351   1.386       .  A
C344        C358   1.417       .  A
C344        C352   1.387   1_655  A
C345        C353   1.386       .  A
C345        C356   1.418       .  A
C346        C354   1.387       .  A
C346        C357   1.420       .  A
C347        H359   1.082       .  S
C347        C348   1.376       .  A
C348        H360   1.082       .  S
C349        H361   1.082       .  S
C349        C350   1.374       .  A
C350        H362   1.082       .  S
C351        H363   1.082       .  S
C351        C352   1.373       .  A
C352        H364   1.082       .  S
C353        H365   1.082       .  S
C353        C354   1.372       .  A
C354        H366   1.082       .  S
C355        C512   1.492   1_655  S
C356        C483   1.491       .  S
C357        C523   1.495       .  S
C358        C552   1.492       .  S
N369        C374   1.353       .  A
N369        C373   1.353       .  A
N369        H401   1.035       .  S
N370        C377   1.350       .  A
N370        C378   1.350       .  A
N371        C376   1.353   1_545  A
N371        C375   1.353   1_545  A
N371        H402   1.035       .  S
N372        C379   1.352       .  A
N372        C380   1.352       .  A
C373        C381   1.387   1_545  A
C373        C389   1.414       .  A
C374        C390   1.416       .  A
C374        C382   1.388   1_545  A
C375        C383   1.386       .  A
C375        C392   1.414   1_565  A
C376        C391   1.415   1_565  A
C376        C384   1.387       .  A
C377        C389   1.411       .  A
C377        C385   1.386       .  A
C378        C392   1.410       .  A
C378        C386   1.386       .  A
C379        C387   1.386       .  A
C379        C390   1.415       .  A
C380        C388   1.386       .  A
C380        C391   1.416       .  A
C381        H393   1.082       .  S
C381        C382   1.375       .  A
C382        H394   1.082       .  S
C383        H395   1.082       .  S
C383        C384   1.376       .  A
C384        H396   1.082       .  S
C385        H397   1.082       .  S
C385        C386   1.374       .  A
C386        H398   1.082       .  S
C387        H399   1.082       .  S
C387        C388   1.377       .  A
C388        H400   1.082       .  S
C389        C443   1.486       .  S
C390        C463   1.491       .  S
C391        C423   1.495   1_545  S
C392        C412   1.487   1_545  S
C403        C404   1.413   1_565  A
C403        C408   1.412       .  A
C404        C405   1.407       .  A
C404       Br416   1.930       .  S
C405        C406   1.407   1_545  A
C405       Br420   1.930       .  S
C406        C409   1.485       .  S
C406        C407   1.409       .  A
C407        C408   1.409       .  A
C407       Br415   1.931       .  S
C408       Br419   1.929       .  S
C409        C410   1.410       .  A
C409        C414   1.410   1_565  A
C410        C411   1.407       .  A
C410       Br421   1.929       .  S
C411        C412   1.409       .  A
C411       Br417   1.929       .  S
C412        C413   1.408   1_565  A
C413        C414   1.406       .  A
C413       Br422   1.929       .  S
C414       Br418   1.929       .  S
C423        C424   1.412       .  A
C423        C428   1.413   1_565  A
C424        C425   1.409       .  A
C424       Br436   1.930       .  S
C425        C426   1.410       .  A
C425       Br440   1.928       .  S
C426        C429   1.490       .  S
C426        C427   1.410   1_565  A
C427        C428   1.409       .  A
C427       Br435   1.929       .  S
C428       Br439   1.931       .  S
C429        C430   1.410       .  A
C429        C434   1.408   1_565  A
C430        C431   1.412       .  A
C430       Br441   1.929       .  S
C431        C432   1.414       .  A
C431       Br437   1.930       .  S
C432        C433   1.414   1_565  A
C433        C434   1.409       .  A
C433       Br442   1.930       .  S
C434       Br438   1.931       .  S
C443        C444   1.409   1_545  A
C443        C448   1.408       .  A
C444        C445   1.407       .  A
C444       Br456   1.930       .  S
C445        C446   1.410   1_565  A
C445       Br460   1.929       .  S
C446        C449   1.484       .  S
C446        C447   1.410       .  A
C447        C448   1.406       .  A
C447       Br455   1.928       .  S
C448       Br459   1.929       .  S
C449        C450   1.410       .  A
C449        C454   1.408       .  A
C450        C451   1.409       .  A
C450       Br461   1.929   1_545  S
C451        C452   1.408       .  A
C451       Br457   1.929   1_545  S
C452        C453   1.409       .  A
C453        C454   1.407       .  A
C453       Br462   1.925       .  S
C454       Br458   1.930       .  S
C463        C464   1.408       .  A
C463        C468   1.410   1_545  A
C464        C465   1.408       .  A
C464       Br476   1.929       .  S
C465        C466   1.411       .  A
C465       Br480   1.928       .  S
C466        C469   1.489       .  S
C466        C467   1.411   1_545  A
C467        C468   1.409       .  A
C467       Br475   1.929       .  S
C468       Br479   1.929       .  S
C469        C470   1.411       .  A
C469        C474   1.410       .  A
C470        C471   1.410       .  A
C470       Br481   1.929       .  S
C471        C472   1.408       .  A
C471       Br477   1.926       .  S
C472        C473   1.409       .  A
C473        C474   1.408       .  A
C473       Br482   1.926       .  S
C474       Br478   1.929       .  S
C483        C484   1.409       .  A
C483        C488   1.410   1_655  A
C484        C485   1.408       .  A
C484       Br496   1.928       .  S
C485        C486   1.410   1_655  A
C485       Br500   1.928       .  S
C486        C489   1.488       .  S
C486        C487   1.411       .  A
C487        C488   1.408       .  A
C487       Br495   1.928       .  S
C488       Br499   1.930       .  S
C489        C490   1.410       .  A
C489        C494   1.410       .  A
C490        C491   1.409       .  A
C490       Br501   1.928       .  S
C491        C492   1.408       .  A
C491       Br497   1.929       .  S
C492        C493   1.409       .  A
C493        C494   1.409       .  A
C493       Br502   1.930       .  S
C494       Br498   1.929   1_455  S
C503        C504   1.411       .  A
C503        C508   1.408   1_455  A
C504        C505   1.409       .  A
C504       Br516   1.929       .  S
C505        C506   1.409       .  A
C505       Br520   1.930       .  S
C506        C509   1.485       .  S
C506        C507   1.409   1_455  A
C507        C508   1.407       .  A
C507       Br515   1.930       .  S
C508       Br519   1.927       .  S
C509        C510   1.410   1_455  A
C509        C514   1.409       .  A
C510        C511   1.408       .  A
C510       Br521   1.929       .  S
C511        C512   1.411   1_655  A
C511       Br517   1.929       .  S
C512        C513   1.410       .  A
C513        C514   1.406       .  A
C513       Br522   1.928       .  S
C514       Br518   1.930       .  S
C523        C524   1.411   1_655  A
C523        C528   1.412       .  A
C524        C525   1.408       .  A
C524       Br536   1.931       .  S
C525        C526   1.410   1_455  A
C525       Br540   1.929       .  S
C526        C529   1.488       .  S
C526        C527   1.409       .  A
C527        C528   1.409       .  A
C527       Br535   1.928       .  S
C528       Br539   1.929       .  S
C529        C530   1.411       .  A
C529        C534   1.410       .  A
C530        C531   1.409       .  A
C530       Br541   1.929       .  S
C531        C532   1.408       .  A
C531       Br537   1.928       .  S
C532        C533   1.410       .  A
C533        C534   1.409       .  A
C533       Br542   1.929       .  S
C534       Br538   1.929       .  S
C543        C544   1.414   1_655  A
C543        C548   1.412       .  A
C544        C545   1.408       .  A
C544       Br556   1.931       .  S
C545        C546   1.408   1_455  A
C545       Br560   1.931       .  S
C546        C549   1.484       .  S
C546        C547   1.408       .  A
C547        C548   1.408       .  A
C547       Br555   1.930       .  S
C548       Br559   1.928       .  S
C549        C550   1.409   1_655  A
C549        C554   1.409       .  A
C550        C551   1.406       .  A
C550       Br561   1.929       .  S
C551        C552   1.410   1_455  A
C551       Br557   1.929       .  S
C552        C553   1.412       .  A
C553        C554   1.408       .  A
C553       Br562   1.930       .  S
C554       Br558   1.929       .  S
