geometry optimzed in LAMMPS
_audit_creation_date              2020-11-30 
_audit_creation_method            'lammps2cif' 
_symmetry_space_group_name_H-M    'P1' 
_symmetry_Int_Tables_number       1 
_symmetry_cell_setting            triclinic 
loop_ 
_symmetry_equiv_pos_as_xyz 
  x,y,z 
_cell_length_a                    49.4369146 
_cell_length_b                    49.35298319003869 
_cell_length_c                    33.2137200795408 
_cell_angle_alpha                 90.73445042157367 
_cell_angle_beta                  91.48276123447016 
_cell_angle_gamma                 80.03307381145683 
loop_ 
_atom_site_label 
_atom_site_type_symbol 
_atom_site_fract_x 
_atom_site_fract_y 
_atom_site_fract_z 
_atom_site_charge 
O1          O  0.51080712  0.44959921  0.46560665    -0.80000
O2          O  0.04928530  0.99041958  0.03269751    -0.80100
O3          O  0.03825484  0.49795084  0.44147911    -0.80100
O4          O  0.98751249  0.47577625  0.09248496    -0.80000
O5          O  0.06017985  0.02603053  0.47581077    -0.80100
O6          O  0.50703956  0.44822562  0.04558401    -0.80000
O7          O  0.02534016  0.50925952  0.08535360    -0.80000
O8          O  0.99362401  0.47602812  0.41675477    -0.80100
C9          C  0.00523295  0.45259764  0.42871633     1.09700
C10         C  0.04727411  0.49598752  0.07029593     1.09500
C11         C  0.06097635  0.00781113  0.44857590     1.09700
C12         C  0.50057954  0.45235260  0.08175895     1.09600
O13         O  0.44885776  0.47198342  0.04059905    -0.80000
O14         O  0.00729249  0.04874087  0.45855609    -0.80100
O15         O  0.45708469  0.01948023  0.45000919    -0.80000
O16         O  0.48461352  0.05175277  0.04681049    -0.80000
O17         O  0.02803170  0.04778291  0.03620803    -0.80100
O18         O  0.45227903  0.47547742  0.45945475    -0.80000
O19         O  0.44774828  0.01768576  0.05128290    -0.80000
O20         O  0.49887367  0.02782039  0.40160326    -0.80100
Co21       Co  0.48104663  0.46309019  0.50288204     1.51500
Co22       Co  0.02750729  0.01704995  0.99599080     1.51700
Co23       Co  0.99744425  0.00901264  0.45044089     1.51600
Co24       Co  0.48580558  0.51304386  0.06584625     1.51500
O25         O  0.49427345  0.49946741  0.50843856    -1.42000
C26         C  0.43607867  0.49484860  0.05405440     1.09600
C27         C  0.00236014  0.04960720  0.41997130     1.09700
C28         C  0.44303510  0.00026785  0.44700877     1.09600
C29         C  0.50621267  0.06192329  0.04923917     1.09600
C30         C  0.00411449  0.27772331  0.23484049     0.02400
C31         C  0.00227490  0.27610302  0.27691353     0.02400
C32         C  0.00150875  0.25072821  0.29485810    -0.18200
C33         C  0.00237533  0.22674406  0.27129911     0.02400
C34         C  0.00408441  0.22841017  0.22889016     0.02400
C35         C  0.00507931  0.25393867  0.21124770    -0.18200
H36         H  0.00679270  0.25529306  0.17888335     0.04400
H37         H  0.00046775  0.24961006  0.32735190     0.04400
C38         C  0.27419372  0.99781684  0.27096269     0.02400
C39         C  0.27254520  0.99796152  0.22836822     0.02400
C40         C  0.24738505  0.99580379  0.20886887    -0.18200
C41         C  0.22373471  0.99436589  0.23076966     0.02400
C42         C  0.22523281  0.99561041  0.27327316     0.02400
C43         C  0.25045119  0.99699345  0.29280142    -0.18200
H44         H  0.25160520  0.99746890  0.32545562     0.04400
H45         H  0.24616967  0.99535182  0.17622941     0.04400
C46         C  0.09547431  0.48657939  0.16221925    -0.27500
C47         C  0.12291074  0.98776433  0.14139406     0.02100
C48         C  0.12331481  0.98991054  0.09922172     0.30200
C49         C  0.09909202  0.99081161  0.07627504    -0.19300
C50         C  0.07397458  0.99013581  0.09477833    -0.28700
C51         C  0.07125117  0.48898953  0.13861189     0.44200
C52         C  0.14814738  0.98870627  0.16606098     0.05400
O53         O  0.14710833  0.99228429  0.08025572    -0.57200
H54         H  0.09977583  0.99350910  0.04401057     0.18300
O55         O  0.04653251  0.49189006  0.15743608    -0.63900
H56         H  0.09418524  0.48726123  0.19474605     0.16800
C57         C  0.14938438  0.01026521  0.19384420     0.29000
C58         C  0.17412905  0.01213527  0.21429396    -0.24800
C59         C  0.19766910  0.99214969  0.20858604    -0.24100
C60         C  0.19384708  0.46392283  0.18624517     0.40500
C61         C  0.16881370  0.46250833  0.16617001    -0.26600
O62         O  0.12687337  0.03032527  0.19971742    -0.58500
H63         H  0.17498108  0.02940783  0.23440378     0.16100
O64         O  0.21528615  0.44236047  0.18292982    -0.59900
H65         H  0.16691381  0.44454189  0.14793367     0.14600
H66         H  0.04266068  0.47292340  0.15981111     0.46400
H67         H  0.11912426  0.02557679  0.22542305     0.41800
H68         H  0.21279246  0.42959244  0.20480833     0.45300
H69         H  0.14802771  0.01220086  0.08121565     0.36700
C70         C  0.10731557  0.98915028  0.35966655    -0.27500
C71         C  0.13243046  0.99472601  0.37532838     0.02100
C72         C  0.13251301  0.50556021  0.41486191     0.30200
C73         C  0.10937802  0.50868607  0.43892396    -0.19300
C74         C  0.08589108  0.00056198  0.42429139    -0.28700
C75         C  0.08416313  0.99196450  0.38379443     0.44200
C76         C  0.15578785  0.99474225  0.34820966     0.05400
O77         O  0.15668688  0.51149647  0.43091771    -0.57200
H78         H  0.11109888  0.51584287  0.46971327     0.18300
O79         O  0.05964914  0.98768152  0.36682486    -0.63900
H80         H  0.10530652  0.98379575  0.32813146     0.16800
C81         C  0.16514860  0.47245392  0.32592924     0.29000
C82         C  0.18771403  0.47239627  0.30128034    -0.24800
C83         C  0.20085269  0.99556390  0.29822486    -0.24100
C84         C  0.18973013  0.01917371  0.32037423     0.40500
C85         C  0.16743155  0.01863430  0.34522545    -0.26600
O86         O  0.15490267  0.44860469  0.33058159    -0.58300
H87         H  0.19632421  0.45368239  0.28543531     0.16100
O88         O  0.20058856  0.04284983  0.31789428    -0.59900
H89         H  0.15910907  0.03697398  0.36214482     0.14600
H90         H  0.05040615  0.00600384  0.35728364     0.46400
H91         H  0.14355274  0.44688045  0.30592966     0.41800
H92         H  0.19035543  0.05327571  0.29531106     0.45300
H93         H  0.16804160  0.49340150  0.43736955     0.36700
C94         C  0.31712879  0.02101176  0.14851990    -0.27500
C95         C  0.34059260  0.49407616  0.15082208     0.02100
C96         C  0.33249115  0.46903162  0.16078530     0.30200
C97         C  0.31015660  0.46900068  0.18597807    -0.19300
C98         C  0.29658332  0.99981958  0.20321750    -0.28700
C99         C  0.29540883  0.02099613  0.17477836     0.44200
C100        C  0.36442725  0.49476072  0.12473903     0.05400
O101        O  0.34711877  0.44446945  0.14760027    -0.57200
H102        H  0.30395915  0.44965020  0.19317845     0.18300
O103        O  0.27299826  0.04166651  0.17222935    -0.63900
H104        H  0.31571619  0.03716423  0.12637860     0.16800
C105        C  0.36545897  0.48385521  0.08520059     0.29000
C106        C  0.38871947  0.48423312  0.06183173    -0.24800
C107        C  0.41088290  0.49572592  0.07730354    -0.24100
C108        C  0.39918605  0.02305863  0.09705050     0.40500
C109        C  0.37619089  0.02328339  0.12082801    -0.26600
O110        O  0.34339097  0.47383193  0.06873430    -0.58500
H111        H  0.38938051  0.47569975  0.03157828     0.16100
O112        O  0.41222284  0.04544318  0.09889725    -0.59900
H113        H  0.36915972  0.04112505  0.13956829     0.14600
H114        H  0.27578260  0.05472544  0.19427616     0.46400
H115        H  0.34987416  0.45385722  0.06449910     0.41800
H116        H  0.40344098  0.05778620  0.07717731     0.45300
H117        H  0.33432690  0.43634809  0.12950468     0.36700
C118        C  0.38346015  0.52390279  0.37060706    -0.27500
C119        C  0.36986254  0.00412277  0.37297571     0.02100
C120        C  0.37157116  0.99226431  0.41165936     0.30200
C121        C  0.39516381  0.99192130  0.43606051    -0.19300
C122        C  0.41693574  0.00429886  0.42336153    -0.28700
C123        C  0.40719058  0.52366032  0.39486690     0.44200
C124        C  0.34602605  0.00256159  0.34503020     0.05400
O125        O  0.35036823  0.98078977  0.42589123    -0.57200
H126        H  0.39652965  0.98180979  0.46500656     0.18300
O127        O  0.42279794  0.54369624  0.38950415    -0.63900
H128        H  0.37824531  0.53976505  0.34810551     0.16800
C129        C  0.33230693  0.02592626  0.32415220     0.29000
C130        C  0.30957257  0.02392197  0.29874697    -0.24800
C131        C  0.30007184  0.99889934  0.29397333    -0.24100
C132        C  0.31894701  0.47690890  0.29796037     0.40500
C133        C  0.34131409  0.47830562  0.32425224    -0.26600
O134        O  0.33984659  0.05115268  0.33042902    -0.58500
H135        H  0.29874769  0.04216223  0.28380225     0.16100
O136        O  0.31633828  0.45227035  0.27997679    -0.59900
H137        H  0.35692985  0.46016075  0.32820105     0.14600
H138        H  0.43534795  0.53674949  0.36743005     0.46400
H139        H  0.34804915  0.05551836  0.30487454     0.41800
H140        H  0.33200491  0.44794412  0.26156470     0.45300
H141        H  0.33750292  0.99636685  0.43764457     0.36700
C142        C  0.02861319  0.12598567  0.09523132    -0.27500
C143        C  0.00666981  0.13525335  0.12080598     0.02100
C144        C  0.48416900  0.12130279  0.12077971     0.30200
C145        C  0.48389145  0.09832960  0.09593571    -0.19300
C146        C  0.00610446  0.08838542  0.07108024    -0.28700
C147        C  0.02840909  0.10278863  0.07032643     0.44200
C148        C  0.00706643  0.15934583  0.14778407     0.05400
O149        O  0.46260996  0.12951140  0.14588031    -0.57200
H150        H  0.46654452  0.08766230  0.09736162     0.18300
O151        O  0.05022243  0.09424366  0.04585671    -0.63900
H152        H  0.04592898  0.13674912  0.09463351     0.16800
C153        C  0.02768420  0.15936634  0.17789595     0.29000
C154        C  0.02648367  0.18173903  0.20467319    -0.24800
C155        C  0.00476165  0.20416255  0.20189203    -0.24100
C156        C  0.48419735  0.20405296  0.17183946     0.40500
C157        C  0.48543601  0.18179202  0.14513809    -0.26600
O158        O  0.04880461  0.13746517  0.18175058    -0.58500
H159        H  0.04255152  0.18166174  0.22750354     0.16100
O160        O  0.46213600  0.22513607  0.16958788    -0.59900
H161        H  0.46926763  0.18192195  0.12244577     0.14600
H162        H  0.04526030  0.10399788  0.02007771     0.46400
H163        H  0.04177587  0.12431216  0.19938803     0.41800
H164        H  0.46581001  0.23653674  0.14665667     0.45300
H165        H  0.46878085  0.12130537  0.17237528     0.36700
C166        C  0.97911747  0.16190139  0.30750086    -0.27500
C167        C  0.00069683  0.15141190  0.33432642     0.02100
C168        C  0.02303656  0.16544412  0.33958266     0.30200
C169        C  0.02338334  0.18981452  0.31859223    -0.19300
C170        C  0.00173443  0.20042129  0.29199777    -0.28700
C171        C  0.97947166  0.18631515  0.28648641     0.44200
C172        C  0.99986371  0.12569462  0.35645921     0.05400
O173        O  0.04512182  0.15478672  0.36383447    -0.57200
H174        H  0.04070997  0.20041153  0.32286894     0.18300
O175        O  0.45743704  0.19699683  0.26217395    -0.63900
H176        H  0.46175093  0.15134742  0.30332709     0.16800
C177        C  0.00072378  0.12519675  0.39885990     0.29000
C178        C  0.00122766  0.10041249  0.41911881    -0.24800
C179        C  0.00040226  0.07580563  0.39770758    -0.24100
C180        C  0.49880995  0.07653926  0.35510966     0.40500
C181        C  0.49857374  0.10132691  0.33495017    -0.26600
O182        O  0.00110478  0.14885388  0.42081329    -0.58500
H183        H  0.00233375  0.10051219  0.45174410     0.16100
O184        O  0.49854009  0.05304603  0.33269732    -0.59900
H185        H  0.49793154  0.10142519  0.30230822     0.14600
H186        H  0.45752959  0.18384043  0.23934136     0.46400
H187        H  0.98152550  0.15726991  0.42372253     0.41800
H188        H  0.47883539  0.05246339  0.32720021     0.45300
H189        H  0.04441652  0.16737086  0.38745162     0.36700
C190        C  0.03170035  0.33709281  0.18907938    -0.27500
C191        C  0.50746449  0.35617806  0.18199097     0.02100
C192        C  0.48206185  0.34906539  0.19209403     0.30200
C193        C  0.48120130  0.32328126  0.20879012    -0.19300
C194        C  0.00538449  0.30426522  0.21535026    -0.28700
C195        C  0.03075014  0.31126603  0.20545271     0.44200
C196        C  0.50861905  0.38182580  0.15952528     0.05400
O197        O  0.45789157  0.36642965  0.18326457    -0.57200
H198        H  0.46157510  0.31800285  0.21635845     0.18300
O199        O  0.05473909  0.29320836  0.21254109    -0.63900
H200        H  0.05138875  0.34211666  0.18129508     0.16800
C201        C  0.49649601  0.40806660  0.17373244     0.29000
C202        C  0.49528517  0.43126465  0.14907795    -0.24800
C203        C  0.50594832  0.42870438  0.11007844    -0.24100
C204        C  0.01963353  0.40252157  0.09720128     0.40500
C205        C  0.02077498  0.37957009  0.12175386    -0.26600
O206        O  0.48624178  0.41121446  0.21183981    -0.58500
H207        H  0.48516424  0.45110779  0.16007527     0.16100
O208        O  0.03089928  0.39865730  0.05981020    -0.59900
H209        H  0.03032162  0.35959219  0.11043024     0.14600
H210        H  0.05720412  0.28125819  0.18822147     0.46400
H211        H  0.46627070  0.41814788  0.20824515     0.41800
H212        H  0.04989112  0.40238576  0.06345652     0.45300
H213        H  0.45007143  0.37266026  0.20968917     0.36700
C214        C  0.02652024  0.37945048  0.39209074    -0.27500
C215        C  0.00734680  0.37810823  0.36056392     0.02100
C216        C  0.48957603  0.40235200  0.34866080     0.30200
C217        C  0.49056561  0.42716109  0.36911529    -0.19300
C218        C  0.00883534  0.42815871  0.40195516    -0.28700
C219        C  0.02748936  0.40417018  0.41254593     0.44200
C220        C  0.00606456  0.35127065  0.34066122     0.05400
O221        O  0.47048241  0.40188005  0.31806203    -0.57200
H222        H  0.47592189  0.44528795  0.36070846     0.18300
O223        O  0.04604791  0.40435305  0.44393972    -0.63900
H224        H  0.04029057  0.36103738  0.40174814     0.16800
C225        C  0.03003000  0.33488245  0.32591058     0.29000
C226        C  0.02861226  0.30963398  0.30739666    -0.24800
C227        C  0.00341819  0.30062099  0.30225704    -0.24100
C228        C  0.47942385  0.31668248  0.31715010     0.40500
C229        C  0.48087259  0.34178728  0.33651428    -0.26600
O230        O  0.05483451  0.34373535  0.32834278    -0.58500
H231        H  0.04711108  0.29746986  0.29555985     0.16100
O232        O  0.45439255  0.30866154  0.31124044    -0.59900
H233        H  0.46227900  0.35397650  0.34801228     0.14600
H234        H  0.06204648  0.41074113  0.43216177     0.46400
H235        H  0.05546379  0.35469751  0.30367309     0.41800
H236        H  0.45322889  0.29540870  0.33304637     0.45300
H237        H  0.48101669  0.40054759  0.29291203     0.36700
O238        O  0.51078378  0.44959036  0.96560742    -0.80000
O239        O  0.04926955  0.99041489  0.53274239    -0.80100
O240        O  0.03825187  0.49794604  0.94147274    -0.80100
O241        O  0.98755870  0.47575894  0.59248763    -0.80000
O242        O  0.06017830  0.02603099  0.97575337    -0.80100
O243        O  0.50708136  0.44821874  0.54558086    -0.80000
O244        O  0.02536861  0.50925990  0.58534201    -0.80000
O245        O  0.99361872  0.47603045  0.91675934    -0.80100
C246        C  0.00522306  0.45259786  0.92872104     1.09700
C247        C  0.04730069  0.49599621  0.57026832     1.09500
C248        C  0.06097468  0.00780361  0.94853033     1.09700
C249        C  0.50062692  0.45234045  0.58175852     1.09600
O250        O  0.44889114  0.47195708  0.54062743    -0.80000
O251        O  0.00728587  0.04873138  0.95851236    -0.80100
O252        O  0.45709081  0.01947122  0.94997681    -0.80000
O253        O  0.48459953  0.05175009  0.54683967    -0.80000
O254        O  0.02802254  0.04777985  0.53626633    -0.80100
O255        O  0.45226377  0.47549183  0.95943225    -0.80000
O256        O  0.44773854  0.01768861  0.55130735    -0.80000
O257        O  0.49887927  0.02780789  0.90156633    -0.80100
Co258      Co  0.48101992  0.46309941  0.00287067     1.51500
Co259      Co  0.02750164  0.01705243  0.49603652     1.51700
Co260      Co  0.99744950  0.00900194  0.95040012     1.51600
Co261      Co  0.48582817  0.51303241  0.56586211     1.51500
O262        O  0.49426495  0.49946840  0.00843059    -1.42000
C263        C  0.43610880  0.49481863  0.55409073     1.09600
C264        C  0.00234922  0.04959669  0.91992909     1.09700
C265        C  0.44304676  0.00025445  0.94697967     1.09600
C266        C  0.50619800  0.06191907  0.54928634     1.09600
C267        C  0.00412345  0.27772357  0.73484347     0.02400
C268        C  0.00225147  0.27611820  0.77691207     0.02400
C269        C  0.00144265  0.25075701  0.79486712    -0.18200
C270        C  0.00230063  0.22676811  0.77132267     0.02400
C271        C  0.00405248  0.22841757  0.72891650     0.02400
C272        C  0.00509027  0.25393391  0.71126498    -0.18200
H273        H  0.00683505  0.25527572  0.67890442     0.04400
H274        H  0.00037803  0.24965279  0.82735953     0.04400
C275        C  0.27418155  0.99782020  0.77099004     0.02400
C276        C  0.27253807  0.99797629  0.72839801     0.02400
C277        C  0.24737655  0.99584655  0.70888382    -0.18200
C278        C  0.22372114  0.99441910  0.73077567     0.02400
C279        C  0.22521732  0.99564952  0.77327803     0.02400
C280        C  0.25043360  0.99701761  0.79281986    -0.18200
H281        H  0.25158255  0.99749215  0.82547436     0.04400
H282        H  0.24616501  0.99540686  0.67624380     0.04400
C283        C  0.09552502  0.48657261  0.66216018    -0.27500
C284        C  0.12288899  0.98780132  0.64143343     0.02100
C285        C  0.12329538  0.98990839  0.59925620     0.30200
C286        C  0.09907392  0.99079276  0.57631364    -0.19300
C287        C  0.07395628  0.99013212  0.59482411    -0.28700
C288        C  0.07129709  0.48898296  0.63856556     0.44200
C289        C  0.14812697  0.98875918  0.66608915     0.05400
O290        O  0.14709148  0.99225603  0.58027834    -0.57200
H291        H  0.09975945  0.99346616  0.54404428     0.18300
O292        O  0.04658405  0.49186556  0.65740188    -0.63900
H293        H  0.09424420  0.48724111  0.69468817     0.16800
C294        C  0.14937527  0.01034168  0.69382835     0.29000
C295        C  0.17412340  0.01221478  0.71426959    -0.24800
C296        C  0.19765479  0.99221254  0.70858980    -0.24100
C297        C  0.19388906  0.46394095  0.68618464     0.40500
C298        C  0.16886308  0.46252850  0.66608764    -0.26600
O299        O  0.12687249  0.03041727  0.69966874    -0.58500
H300        H  0.17498497  0.02949923  0.73435291     0.16100
O301        O  0.21533419  0.44238487  0.68286479    -0.59900
H302        H  0.16697096  0.44456651  0.64783681     0.14600
H303        H  0.04274078  0.47289114  0.65981712     0.46400
H304        H  0.11910982  0.02568704  0.72537361     0.41800
H305        H  0.21283242  0.42960169  0.70471896     0.45300
H306        H  0.14800947  0.01217352  0.58117794     0.36700
C307        C  0.10730651  0.98913672  0.85962702    -0.27500
C308        C  0.13241496  0.99473165  0.87528321     0.02100
C309        C  0.13250752  0.50556532  0.91482430     0.30200
C310        C  0.10937532  0.50869162  0.93889160    -0.19300
C311        C  0.08588683  0.00054745  0.92425118    -0.28700
C312        C  0.08415961  0.99193554  0.88376089     0.44200
C313        C  0.15576582  0.99476051  0.84816523     0.05400
O314        O  0.15668035  0.51151011  0.93087170    -0.57200
H315        H  0.11109877  0.51585614  0.96967636     0.18300
O316        O  0.05965253  0.98762015  0.86680465    -0.63900
H317        H  0.10529848  0.98377605  0.82809410     0.16800
C318        C  0.16514490  0.47245009  0.82589314     0.29000
C319        C  0.18771129  0.47239543  0.80124519    -0.24800
C320        C  0.20083595  0.99559629  0.79821262    -0.24100
C321        C  0.18969727  0.01920774  0.82034219     0.40500
C322        C  0.16739702  0.01866041  0.84518412    -0.26600
O323        O  0.15490676  0.44859716  0.83055322    -0.58300
H324        H  0.19632407  0.45368249  0.78539998     0.16100
O325        O  0.20054144  0.04289171  0.81784917    -0.59900
H326        H  0.15906324  0.03699919  0.86209744     0.14600
H327        H  0.05038436  0.00593480  0.85726875     0.46400
H328        H  0.14355269  0.44686942  0.80590678     0.41800
H329        H  0.19024823  0.05334467  0.79533755     0.45300
H330        H  0.16804289  0.49341783  0.93731658     0.36700
C331        C  0.31716209  0.02107256  0.64865644    -0.27500
C332        C  0.34061905  0.49409011  0.65086153     0.02100
C333        C  0.33251478  0.46904893  0.66083035     0.30200
C334        C  0.31017931  0.46902310  0.68602088    -0.19300
C335        C  0.29658143  0.99983342  0.70326745    -0.28700
C336        C  0.29544167  0.02105572  0.67491313     0.44200
C337        C  0.36445643  0.49476281  0.62478245     0.05400
O338        O  0.34713688  0.44448486  0.64764379    -0.57200
H339        H  0.30398013  0.44967424  0.69322614     0.18300
O340        O  0.27306598  0.04177022  0.67244914    -0.63900
H341        H  0.31578094  0.03726378  0.62658232     0.16800
C342        C  0.36546349  0.48389563  0.58522235     0.29000
C343        C  0.38872788  0.48425501  0.56185425    -0.24800
C344        C  0.41092030  0.49569022  0.57735261    -0.24100
C345        C  0.39929290  0.02300869  0.59732936     0.40500
C346        C  0.37628944  0.02323898  0.62108835    -0.26600
O347        O  0.34336981  0.47392648  0.56873778    -0.58500
H348        H  0.38936815  0.47575593  0.53158077     0.16100
O349        O  0.41244564  0.04530914  0.59939459    -0.59900
H350        H  0.36933224  0.04102756  0.63996876     0.14600
H351        H  0.27588357  0.05477542  0.69455309     0.46400
H352        H  0.34981077  0.45394381  0.56451432     0.41800
H353        H  0.40364932  0.05781350  0.57786765     0.45300
H354        H  0.33434911  0.43637963  0.62952040     0.36700
C355        C  0.38345081  0.52395481  0.87062443    -0.27500
C356        C  0.36984639  0.00409858  0.87300690     0.02100
C357        C  0.37162780  0.99211273  0.91160476     0.30200
C358        C  0.39522638  0.99177529  0.93598725    -0.19300
C359        C  0.41693318  0.00427903  0.92336165    -0.28700
C360        C  0.40718542  0.52369930  0.89487832     0.44200
C361        C  0.34600195  0.00254778  0.84507675     0.05400
O362        O  0.35048762  0.98051372  0.92577404    -0.57200
H363        H  0.39664767  0.98156903  0.96486357     0.18300
O364        O  0.42280864  0.54372032  0.88950478    -0.63900
H365        H  0.37824688  0.53981194  0.84811309     0.16800
C366        C  0.33218207  0.02595609  0.82440425     0.29000
C367        C  0.30945158  0.02395945  0.79899241    -0.24800
C368        C  0.30005576  0.99889928  0.79400363    -0.24100
C369        C  0.31894058  0.47695252  0.79800172     0.40500
C370        C  0.34130176  0.47836052  0.82429626    -0.26600
O371        O  0.33961743  0.05120743  0.83090102    -0.58500
H372        H  0.29854866  0.04222950  0.78420797     0.16100
O373        O  0.31633645  0.45230670  0.78003736    -0.59900
H374        H  0.35691560  0.46021647  0.82826732     0.14600
H375        H  0.43535695  0.53675917  0.86743542     0.46400
H376        H  0.34773339  0.05574000  0.80536373     0.41800
H377        H  0.33200434  0.44797607  0.76162823     0.45300
H378        H  0.33755861  0.99602886  0.93755584     0.36700
C379        C  0.02862262  0.12593375  0.59540584    -0.27500
C380        C  0.00664866  0.13522650  0.62091222     0.02100
C381        C  0.48411733  0.12130776  0.62080087     0.30200
C382        C  0.48384606  0.09833927  0.59594390    -0.19300
C383        C  0.00609245  0.08837486  0.57115608    -0.28700
C384        C  0.02842332  0.10274543  0.57048524     0.44200
C385        C  0.00703871  0.15931794  0.64788673     0.05400
O386        O  0.46252704  0.12954492  0.64583641    -0.57200
H387        H  0.46648052  0.08769378  0.59731171     0.18300
O388        O  0.05026924  0.09417395  0.54608634    -0.63900
H389        H  0.04595841  0.13667227  0.59487222     0.16800
C390        C  0.02760201  0.15930858  0.67808740     0.29000
C391        C  0.02640423  0.18169797  0.70483021    -0.24800
C392        C  0.00473494  0.20416473  0.70193065    -0.24100
C393        C  0.48420792  0.20407642  0.67179767     0.40500
C394        C  0.48544448  0.18180003  0.64512685    -0.26600
O395        O  0.04866499  0.13736349  0.68206054    -0.58500
H396        H  0.04243155  0.18159791  0.72772920     0.16100
O397        O  0.46218723  0.22519816  0.66944571    -0.59900
H398        H  0.46931045  0.18194683  0.62237619     0.14600
H399        H  0.04536442  0.10394242  0.52030475     0.46400
H400        H  0.04155501  0.12425024  0.69967269     0.41800
H401        H  0.46590873  0.23654589  0.64648040     0.45300
H402        H  0.46866383  0.12136483  0.67235958     0.36700
C403        C  0.97907290  0.16187817  0.80742712    -0.27500
C404        C  0.00060663  0.15143748  0.83435493     0.02100
C405        C  0.02289297  0.16552957  0.83973821     0.30200
C406        C  0.02323976  0.18989992  0.81875048    -0.19300
C407        C  0.00164167  0.20045408  0.79204046    -0.28700
C408        C  0.97942378  0.18629635  0.78642038     0.44200
C409        C  0.99978422  0.12570785  0.85646130     0.05400
O410        O  0.04493258  0.15493030  0.86411277    -0.57200
H411        H  0.04053099  0.20053668  0.82311639     0.18300
O412        O  0.45741900  0.19693782  0.76203362    -0.63900
H413        H  0.46174024  0.15128953  0.80319325     0.16800
C414        C  0.00054642  0.12521471  0.89886180     0.29000
C415        C  0.00107433  0.10042110  0.91910430    -0.24800
C416        C  0.00036804  0.07579936  0.89767422    -0.24100
C417        C  0.49886829  0.07652569  0.85507854     0.40500
C418        C  0.49860921  0.10132292  0.83493295    -0.26600
O419        O  0.00080788  0.14888579  0.92083126    -0.58500
H420        H  0.00210279  0.10052545  0.95173230     0.16100
O421        O  0.49870132  0.05301937  0.83265600    -0.59900
H422        H  0.49803061  0.10141842  0.80229083     0.14600
H423        H  0.45755065  0.18375091  0.73923259     0.46400
H424        H  0.98120690  0.15726407  0.92360701     0.41800
H425        H  0.47901501  0.05236750  0.82711749     0.45300
H426        H  0.04414636  0.16753712  0.88771169     0.36700
C427        C  0.03173313  0.33706240  0.68903264    -0.27500
C428        C  0.50749663  0.35616532  0.68197644     0.02100
C429        C  0.48209130  0.34907029  0.69210509     0.30200
C430        C  0.48122194  0.32328952  0.70880389    -0.19300
C431        C  0.00540548  0.30425911  0.71534305    -0.28700
C432        C  0.03077293  0.31123780  0.70540558     0.44200
C433        C  0.50865849  0.38181113  0.65951251     0.05400
O434        O  0.45792549  0.36644721  0.68329427    -0.57200
H435        H  0.46159397  0.31802506  0.71639473     0.18300
O436        O  0.05475444  0.29316151  0.71245703    -0.63900
H437        H  0.05142271  0.34207037  0.68122013     0.16800
C438        C  0.49655084  0.40805405  0.67372912     0.29000
C439        C  0.49534400  0.43125187  0.64907696    -0.24800
C440        C  0.50599903  0.42869011  0.61007279    -0.24100
C441        C  0.01967453  0.40250285  0.59718251     0.40500
C442        C  0.02081009  0.37955095  0.62173262    -0.26600
O443        O  0.48630940  0.41120418  0.71184408    -0.58500
H444        H  0.48523279  0.45109692  0.66008084     0.16100
O445        O  0.03093431  0.39863737  0.55978771    -0.59900
H446        H  0.03034418  0.35957066  0.61040202     0.14600
H447        H  0.05720084  0.28122464  0.68812221     0.46400
H448        H  0.46633999  0.41815211  0.70826410     0.41800
H449        H  0.04993426  0.40234298  0.56343442     0.45300
H450        H  0.45011290  0.37267388  0.70972495     0.36700
C451        C  0.02652516  0.37945900  0.89206611    -0.27500
C452        C  0.00734943  0.37811948  0.86054178     0.02100
C453        C  0.48956628  0.40236002  0.84864775     0.30200
C454        C  0.49055496  0.42716636  0.86910870    -0.19300
C455        C  0.00883168  0.42816342  0.90195154    -0.28700
C456        C  0.02749083  0.40417592  0.91253115     0.44200
C457        C  0.00606312  0.35128379  0.84063902     0.05400
O458        O  0.47046378  0.40188838  0.81806143    -0.57200
H459        H  0.47590614  0.44529205  0.86071281     0.18300
O460        O  0.04605252  0.40435757  0.94392085    -0.63900
H461        H  0.04029848  0.36104576  0.90171572     0.16800
C462        C  0.03002527  0.33489193  0.82588385     0.29000
C463        C  0.02860073  0.30964421  0.80737360    -0.24800
C464        C  0.00340327  0.30063655  0.80224491    -0.24100
C465        C  0.47940987  0.31669920  0.81713113     0.40500
C466        C  0.48086460  0.34180200  0.83649367    -0.26600
O467        O  0.05483270  0.34373925  0.82831117    -0.58500
H468        H  0.04709612  0.29747644  0.79553161     0.16100
O469        O  0.45437516  0.30868651  0.81121515    -0.59900
H470        H  0.46227338  0.35399320  0.84799542     0.14600
H471        H  0.06205756  0.41072734  0.93213287     0.46400
H472        H  0.05547331  0.35467955  0.80362267     0.41800
H473        H  0.45320555  0.29543301  0.83301779     0.45300
H474        H  0.48098429  0.40060431  0.79290198     0.36700
O475        O  0.51010949  0.94828422  0.46649552    -0.80000
O476        O  0.04850978  0.49114329  0.03272759    -0.80100
O477        O  0.03988594  0.99578769  0.44248213    -0.80100
O478        O  0.98783104  0.97687310  0.09300053    -0.80000
O479        O  0.05865050  0.52754251  0.47612911    -0.80100
O480        O  0.50670973  0.94808531  0.04686044    -0.80000
O481        O  0.02646230  0.00924174  0.08526759    -0.80000
O482        O  0.99412309  0.97533445  0.41758894    -0.80100
C483        C  0.00516495  0.95174604  0.42947714     1.09700
C484        C  0.04833052  0.99587395  0.07004415     1.09500
C485        C  0.05930482  0.50997332  0.44800285     1.09700
C486        C  0.50089267  0.95327246  0.08310240     1.09600
O487        O  0.44901539  0.97340458  0.04192232    -0.80000
O488        O  0.00572541  0.54971803  0.45895450    -0.80100
O489        O  0.45508999  0.51915929  0.44979844    -0.80000
O490        O  0.48304040  0.55155770  0.04846386    -0.80000
O491        O  0.02637341  0.54817655  0.03672100    -0.80100
O492        O  0.45229371  0.97631651  0.46079182    -0.80000
O493        O  0.44659678  0.51631840  0.05271519    -0.80000
O494        O  0.49640004  0.52943066  0.40180027    -0.80100
Co495      Co  0.48089058  0.96326385  0.50405636     1.51500
Co496      Co  0.02626562  0.51779791  0.99611270     1.51700
Co497      Co  0.99567773  0.50996573  0.45010480     1.51600
Co498      Co  0.48683887  0.01363133  0.06538697     1.51500
O499        O  0.49535928  0.99908125  0.50875438    -1.42000
C500        C  0.43635044  0.99687209  0.05338904     1.09600
C501        C  0.00038042  0.55097339  0.42043483     1.09700
C502        C  0.44188089  0.49929985  0.44616577     1.09600
C503        C  0.50456305  0.56196337  0.05029699     1.09600
C504        C  0.00628598  0.77783305  0.23368358     0.02400
C505        C  0.00509106  0.77614264  0.27581480     0.02400
C506        C  0.00392310  0.75090596  0.29384011    -0.18200
C507        C  0.00370475  0.72709491  0.27027924     0.02400
C508        C  0.00478070  0.72880058  0.22775253     0.02400
C509        C  0.00622986  0.75422400  0.21007060    -0.18200
H510        H  0.00758308  0.75563700  0.17766413     0.04400
H511        H  0.00321256  0.74979433  0.32637413     0.04400
C512        C  0.27267945  0.49797899  0.26953525     0.02400
C513        C  0.27188635  0.49313810  0.22749644     0.02400
C514        C  0.24718483  0.48879113  0.20860700    -0.18200
C515        C  0.22311667  0.48988609  0.23066839     0.02400
C516        C  0.22394154  0.49535843  0.27252594     0.02400
C517        C  0.24862924  0.49929486  0.29136637    -0.18200
H518        H  0.24928584  0.50273840  0.32367444     0.04400
H519        H  0.24649577  0.48540432  0.17630467     0.04400
C520        C  0.09809778  0.98582256  0.15990204    -0.27500
C521        C  0.12116419  0.48386520  0.14413291     0.02100
C522        C  0.12246113  0.48265318  0.10186163     0.30200
C523        C  0.09832332  0.48507494  0.07825826    -0.19300
C524        C  0.07244931  0.48906711  0.09613391    -0.28700
C525        C  0.07372474  0.98694385  0.13690341     0.44200
C526        C  0.14644874  0.48424334  0.16902145     0.05400
O527        O  0.14721633  0.48034615  0.08325352    -0.57200
H528        H  0.09988809  0.48515978  0.04578169     0.18300
O529        O  0.04975776  0.98541226  0.15595674    -0.63900
H530        H  0.09758813  0.98381562  0.19230880     0.16800
C531        C  0.14925033  0.50737675  0.19296962     0.29000
C532        C  0.17438441  0.50902194  0.21227581    -0.24800
C533        C  0.19684884  0.48745198  0.20924665    -0.24100
C534        C  0.19618748  0.97018616  0.18154597     0.40500
C535        C  0.17166947  0.96876994  0.16018018    -0.26600
O536        O  0.12801429  0.52918749  0.19580252    -0.58500
H537        H  0.17643996  0.52741205  0.22939861     0.16100
O538        O  0.21859829  0.94999444  0.17582118    -0.59900
H539        H  0.17096241  0.95201731  0.13898651     0.14600
H540        H  0.04805115  0.96568761  0.15469100     0.46400
H541        H  0.11965611  0.52701926  0.22213859     0.41800
H542        H  0.21752083  0.93613810  0.19682332     0.45300
H543        H  0.15023532  0.49951981  0.07977195     0.36700
C544        C  0.10578349  0.49065017  0.35917703    -0.27500
C545        C  0.13067530  0.49708095  0.37439058     0.02100
C546        C  0.13454355  0.00186879  0.41635185     0.30200
C547        C  0.11137020  0.00492456  0.44040098    -0.19300
C548        C  0.08412715  0.50326743  0.42335999    -0.28700
C549        C  0.08258925  0.49373508  0.38327217     0.44200
C550        C  0.15417058  0.49645621  0.34740755     0.05400
O551        O  0.15901660  0.00659630  0.43294912    -0.57200
H552        H  0.11321436  0.01128214  0.47155930     0.18300
O553        O  0.05826078  0.48860521  0.36669055    -0.63900
H554        H  0.10399420  0.48432787  0.32800452     0.16800
C555        C  0.16631957  0.97141556  0.32492821     0.29000
C556        C  0.18883741  0.97188723  0.30028573    -0.24800
C557        C  0.19955259  0.49609035  0.29771887    -0.24100
C558        C  0.18837665  0.52018205  0.31875837     0.40500
C559        C  0.16580593  0.52026352  0.34328940    -0.26600
O560        O  0.15552544  0.94771912  0.32751064    -0.58300
H561        H  0.19717724  0.95365745  0.28314980     0.16100
O562        O  0.19950254  0.54366071  0.31562500    -0.59900
H563        H  0.15733640  0.53899928  0.35919424     0.14600
H564        H  0.04902121  0.50642846  0.35538806     0.46400
H565        H  0.14379512  0.94734198  0.30289837     0.41800
H566        H  0.18732505  0.55538913  0.29617735     0.45300
H567        H  0.16889470  0.98826441  0.44147995     0.36700
C568        C  0.32643757  0.51872844  0.16721274    -0.27500
C569        C  0.34039091  0.00020297  0.15038485     0.02100
C570        C  0.34215098  0.97979508  0.18006951     0.30200
C571        C  0.32023235  0.97956422  0.20593038    -0.19300
C572        C  0.29607577  0.49361987  0.20227651    -0.28700
C573        C  0.30436278  0.51861601  0.19284307     0.44200
C574        C  0.36309519  0.00032447  0.12206665     0.05400
O575        O  0.36570027  0.96069799  0.18497538    -0.57200
H576        H  0.32155948  0.96322488  0.22767425     0.18300
O577        O  0.29028520  0.54307686  0.20723928    -0.63900
H578        H  0.33242999  0.53815274  0.15986799     0.16800
C579        C  0.37238332  0.97739997  0.09728031     0.29000
C580        C  0.39544317  0.97708832  0.07341996    -0.24800
C581        C  0.40959744  0.99943203  0.07380809    -0.24100
C582        C  0.40956245  0.50706408  0.11655136     0.40500
C583        C  0.38651778  0.50651164  0.13986554    -0.26600
O584        O  0.35863281  0.95549389  0.09564937    -0.58500
H585        H  0.40262391  0.95898360  0.05531126     0.16100
O586        O  0.43150548  0.51713284  0.13336382    -0.59900
H587        H  0.38613877  0.51478870  0.17027077     0.14600
H588        H  0.30224645  0.54884319  0.22899132     0.46400
H589        H  0.37192456  0.93947324  0.10570977     0.41800
H590        H  0.42708255  0.53733756  0.12969021     0.45300
H591        H  0.36042836  0.94267032  0.17811863     0.36700
C592        C  0.39155920  0.01686342  0.36061217    -0.27500
C593        C  0.36732371  0.50325735  0.37384430     0.02100
C594        C  0.37487546  0.48260132  0.40294845     0.30200
C595        C  0.39860298  0.48224763  0.42698621    -0.19300
C596        C  0.41523161  0.50247125  0.42318351    -0.28700
C597        C  0.41473898  0.01735615  0.38564132     0.44200
C598        C  0.34350359  0.50264953  0.34560065     0.05400
O599        O  0.35939647  0.46238953  0.40787451    -0.57200
H600        H  0.40417415  0.46576274  0.44846819     0.18300
O601        O  0.43567358  0.02954739  0.37210109    -0.63900
H602        H  0.39098882  0.02575277  0.33090356     0.16800
C603        C  0.32296378  0.52601071  0.33962831     0.29000
C604        C  0.30053120  0.52455090  0.31344316    -0.24800
C605        C  0.29835692  0.50014455  0.29243100    -0.24100
C606        C  0.31386011  0.97551330  0.31431053     0.40500
C607        C  0.33679736  0.97735441  0.33918205    -0.26600
O608        O  0.32380472  0.54982094  0.36103276    -0.58500
H609        H  0.28440892  0.54235556  0.31020716     0.16100
O610        O  0.30450526  0.95095924  0.31089808    -0.59900
H611        H  0.34727417  0.95900562  0.35421396     0.14600
H612        H  0.44787203  0.01482916  0.35742366     0.46400
H613        H  0.32845952  0.56305202  0.34120448     0.41800
H614        H  0.31713882  0.93956380  0.29216777     0.45300
H615        H  0.34477877  0.47037768  0.42661805     0.36700
C616        C  0.02675348  0.62678147  0.09362751    -0.27500
C617        C  0.00586328  0.63524363  0.12120267     0.02100
C618        C  0.48403309  0.62057765  0.12353365     0.30200
C619        C  0.48347077  0.59744389  0.09914945    -0.19300
C620        C  0.00459314  0.58836701  0.07207805    -0.28700
C621        C  0.02611228  0.60363733  0.06882264     0.44200
C622        C  0.00659588  0.65939266  0.14766525     0.05400
O623        O  0.46332597  0.62846250  0.15016921    -0.57200
H624        H  0.46676955  0.58609152  0.10242187     0.18300
O625        O  0.04660205  0.59613885  0.04173565    -0.63900
H626        H  0.04347867  0.63821362  0.09125883     0.16800
C627        C  0.02620083  0.65859019  0.17930035     0.29000
C628        C  0.02546404  0.68120848  0.20541057    -0.24800
C629        C  0.00495267  0.70457086  0.20081711    -0.24100
C630        C  0.48518091  0.70516127  0.16935590     0.40500
C631        C  0.48611577  0.68267491  0.14308939    -0.26600
O632        O  0.04581735  0.63562309  0.18531672    -0.58500
H633        H  0.04093212  0.68052261  0.22925185     0.16100
O634        O  0.46410752  0.72712041  0.16533708    -0.59900
H635        H  0.47058091  0.68323782  0.11934415     0.14600
H636        H  0.03962512  0.60556389  0.01638043     0.46400
H637        H  0.03735835  0.62386749  0.20354236     0.41800
H638        H  0.46870978  0.73744580  0.14177581     0.45300
H639        H  0.47039420  0.62006615  0.17618195     0.36700
C640        C  0.97905520  0.66336827  0.30808506    -0.27500
C641        C  0.00079796  0.65240822  0.33438634     0.02100
C642        C  0.02374133  0.66569791  0.33856067     0.30200
C643        C  0.02447735  0.68981964  0.31714859    -0.19300
C644        C  0.00263967  0.70092834  0.29119235    -0.28700
C645        C  0.97983340  0.68750113  0.28660552     0.44200
C646        C  0.99951426  0.62689284  0.35685794     0.05400
O647        O  0.04598736  0.65457411  0.36218695    -0.57200
H648        H  0.04225167  0.69984912  0.32062386     0.18300
O649        O  0.45774708  0.69852445  0.26264403    -0.63900
H650        H  0.46124391  0.65339176  0.30466716     0.16800
C651        C  0.00160523  0.62620671  0.39922669     0.29000
C652        C  0.00154391  0.60152524  0.41960995    -0.24800
C653        C  0.99876966  0.57727566  0.39837832    -0.24100
C654        C  0.49574682  0.57833276  0.35589709     0.40500
C655        C  0.49624549  0.60292531  0.33562314    -0.26600
O656        O  0.00358980  0.64960118  0.42101621    -0.58500
H657        H  0.00371590  0.60142126  0.45215330     0.16100
O658        O  0.49321479  0.55528840  0.33359073    -0.59900
H659        H  0.49451140  0.60316798  0.30302688     0.14600
H660        H  0.45811206  0.68593991  0.23907618     0.46400
H661        H  0.98434936  0.65853468  0.42565158     0.41800
H662        H  0.47317831  0.55632469  0.32881817     0.45300
H663        H  0.04622810  0.66741915  0.38535664     0.36700
C664        C  0.03288620  0.83903843  0.19184608    -0.27500
C665        C  0.50829411  0.85669256  0.18128832     0.02100
C666        C  0.48306441  0.84769085  0.18683840     0.30200
C667        C  0.48272565  0.82181014  0.20355167    -0.19300
C668        C  0.00728276  0.80438917  0.21407070    -0.28700
C669        C  0.03249533  0.81294249  0.20762453     0.44200
C670        C  0.50936532  0.88297075  0.16039878     0.05400
O671        O  0.45883425  0.86320183  0.17342692    -0.57200
H672        H  0.46323904  0.81518664  0.20799445     0.18300
O673        O  0.05683610  0.79606995  0.21712164    -0.63900
H674        H  0.05248386  0.84538209  0.18724844     0.16800
C675        C  0.49370094  0.90825582  0.17265211     0.29000
C676        C  0.49250610  0.93176732  0.14869857    -0.24800
C677        C  0.50684952  0.93043630  0.11253361    -0.24100
C678        C  0.02457947  0.90570640  0.10263242     0.40500
C679        C  0.02547561  0.88232096  0.12618029    -0.26600
O680        O  0.47993453  0.91017535  0.20822811    -0.58500
H681        H  0.47936632  0.95068580  0.15757885     0.16100
O682        O  0.04031422  0.90369809  0.06895479    -0.59900
H683        H  0.03805983  0.86322928  0.11666095     0.14600
H684        H  0.06016190  0.78289553  0.19425353     0.46400
H685        H  0.46024048  0.91619591  0.20095112     0.41800
H686        H  0.05721137  0.91072430  0.07747676     0.45300
H687        H  0.44825000  0.86893838  0.19797492     0.36700
C688        C  0.02857740  0.87970249  0.38997427    -0.27500
C689        C  0.01020305  0.87871608  0.35730490     0.02100
C690        C  0.49247418  0.90300646  0.34550683     0.30200
C691        C  0.49229247  0.92734719  0.36768091    -0.19300
C692        C  0.00958516  0.92783810  0.40180609    -0.28700
C693        C  0.02854358  0.90399783  0.41191901     0.44200
C694        C  0.00895987  0.85195781  0.33722049     0.05400
O695        O  0.47461795  0.90298422  0.31321226    -0.57200
H696        H  0.47759465  0.94546507  0.35939034     0.18300
O697        O  0.04639798  0.90385556  0.44425667    -0.63900
H698        H  0.04232292  0.86126559  0.39958235     0.16800
C699        C  0.03311037  0.83465822  0.32482587     0.29000
C700        C  0.03165290  0.80902019  0.30759057    -0.24800
C701        C  0.00625475  0.80068656  0.30096766    -0.24100
C702        C  0.48207882  0.81771281  0.31335101     0.40500
C703        C  0.48355195  0.84308372  0.33173571    -0.26600
O704        O  0.05815611  0.84294804  0.32832113    -0.58500
H705        H  0.05030413  0.79607630  0.29766305     0.16100
O706        O  0.45690122  0.81032530  0.30592247    -0.59900
H707        H  0.46480483  0.85590085  0.34158045     0.14600
H708        H  0.06180647  0.91217725  0.43427685     0.46400
H709        H  0.05984778  0.85310210  0.30319089     0.41800
H710        H  0.45507747  0.79671006  0.32693819     0.45300
H711        H  0.48574838  0.90458476  0.28924043     0.36700
O712        O  0.51013756  0.94828245  0.96647377    -0.80000
O713        O  0.04852572  0.49115672  0.53269910    -0.80100
O714        O  0.03988645  0.99577825  0.94244336    -0.80100
O715        O  0.98781595  0.97687744  0.59303725    -0.80000
O716        O  0.05866345  0.52751379  0.97614641    -0.80100
O717        O  0.50669345  0.94808817  0.54688038    -0.80000
O718        O  0.02644621  0.00923926  0.58531062    -0.80000
O719        O  0.99413772  0.97531892  0.91755382    -0.80100
C720        C  0.00519139  0.95173497  0.92944601     1.09700
C721        C  0.04831338  0.99586847  0.57008924     1.09500
C722        C  0.05930771  0.50995937  0.94800102     1.09700
C723        C  0.50088824  0.95327551  0.58312614     1.09600
O724        O  0.44899904  0.97340824  0.54196540    -0.80000
O725        O  0.00574862  0.54971198  0.95895050    -0.80100
O726        O  0.45508902  0.51917236  0.94979964    -0.80000
O727        O  0.48304037  0.55154922  0.54848828    -0.80000
O728        O  0.02637003  0.54818490  0.53671321    -0.80100
O729        O  0.45231710  0.97630376  0.96075701    -0.80000
O730        O  0.44661904  0.51629289  0.55275071    -0.80000
O731        O  0.49640085  0.52942995  0.90179491    -0.80100
Co732      Co  0.48091180  0.96325788  0.00402714     1.51500
Co733      Co  0.02626283  0.51780948  0.49610291     1.51700
Co734      Co  0.99567515  0.50996943  0.95010471     1.51600
Co735      Co  0.48682687  0.01363113  0.56541567     1.51500
O736        O  0.49536908  0.99907888  0.00872562    -1.42000
C737        C  0.43634228  0.99687666  0.55344068     1.09600
C738        C  0.00039645  0.55097040  0.92043212     1.09700
C739        C  0.44187096  0.49932042  0.94616217     1.09600
C740        C  0.50455676  0.56196480  0.55030674     1.09600
C741        C  0.00624656  0.77784069  0.73365519     0.02400
C742        C  0.00507944  0.77614125  0.77578850     0.02400
C743        C  0.00392585  0.75090129  0.79381274    -0.18200
C744        C  0.00369531  0.72709443  0.77024944     0.02400
C745        C  0.00474121  0.72880868  0.72772078     0.02400
C746        C  0.00617278  0.75423629  0.71003801    -0.18200
H747        H  0.00750643  0.75565422  0.67762929     0.04400
H748        H  0.00323822  0.74978354  0.82634844     0.04400
C749        C  0.27268171  0.49800721  0.76954759     0.02400
C750        C  0.27190003  0.49316651  0.72750975     0.02400
C751        C  0.24720758  0.48880945  0.70860796    -0.18200
C752        C  0.22313615  0.48989468  0.73065608     0.02400
C753        C  0.22394878  0.49536049  0.77251652     0.02400
C754        C  0.24863016  0.49930490  0.79137063    -0.18200
H755        H  0.24928012  0.50274493  0.82367981     0.04400
H756        H  0.24652768  0.48542357  0.67630496     0.04400
C757        C  0.09807711  0.98586764  0.65995080    -0.27500
C758        C  0.12120887  0.48387626  0.64406102     0.02100
C759        C  0.12249642  0.48268129  0.60178889     0.30200
C760        C  0.09835314  0.48510326  0.57819721    -0.19300
C761        C  0.07248414  0.48907814  0.59608798    -0.28700
C762        C  0.07370544  0.98696694  0.63695444     0.44200
C763        C  0.14649411  0.48425872  0.66894280     0.05400
O764        O  0.14724656  0.48039198  0.58317088    -0.57200
H765        H  0.09990887  0.48520192  0.54571990     0.18300
O766        O  0.04973792  0.98544697  0.65601447    -0.63900
H767        H  0.09756726  0.98388412  0.69236129     0.16800
C768        C  0.14928634  0.50738885  0.69290331     0.29000
C769        C  0.17441256  0.50903181  0.71223237    -0.24800
C770        C  0.19687754  0.48746253  0.70921242    -0.24100
C771        C  0.19616182  0.97023088  0.68159053     0.40500
C772        C  0.17164148  0.96880927  0.66023658    -0.26600
O773        O  0.12804782  0.52919770  0.69572989    -0.58500
H774        H  0.17646126  0.52741891  0.72936716     0.16100
O775        O  0.21856470  0.95002526  0.67589610    -0.59900
H776        H  0.17092645  0.95204041  0.63907442     0.14600
H777        H  0.04804211  0.96571858  0.65480244     0.46400
H778        H  0.11968091  0.52702438  0.72205761     0.41800
H779        H  0.21745359  0.93616536  0.69687948     0.45300
H780        H  0.15024487  0.49957069  0.57967060     0.36700
C781        C  0.10577763  0.49063664  0.85915487    -0.27500
C782        C  0.13066892  0.49707566  0.87435779     0.02100
C783        C  0.13453202  0.00187129  0.91630621     0.30200
C784        C  0.11136248  0.00492069  0.94035749    -0.19300
C785        C  0.08412538  0.50326073  0.92334195    -0.28700
C786        C  0.08258579  0.49372047  0.88325694     0.44200
C787        C  0.15416236  0.49645214  0.84736968     0.05400
O788        O  0.15900531  0.00659983  0.93290159    -0.57200
H789        H  0.11320616  0.01128225  0.97151410     0.18300
O790        O  0.05825924  0.48857772  0.86668541    -0.63900
H791        H  0.10398700  0.48430715  0.82798584     0.16800
C792        C  0.16630820  0.97143493  0.82489110     0.29000
C793        C  0.18883335  0.97191181  0.80026911    -0.24800
C794        C  0.19955189  0.49608956  0.79769405    -0.24100
C795        C  0.18837254  0.52017947  0.81873499     0.40500
C796        C  0.16579667  0.52026020  0.84325463    -0.26600
O797        O  0.15551395  0.94773726  0.82745709    -0.58300
H798        H  0.19718573  0.95368249  0.78314098     0.16100
O799        O  0.19950234  0.54365691  0.81561818    -0.59900
H800        H  0.15732504  0.53899551  0.85915890     0.14600
H801        H  0.04900184  0.50640171  0.85540631     0.46400
H802        H  0.14380739  0.94735187  0.80282151     0.41800
H803        H  0.18732774  0.55539161  0.79617440     0.45300
H804        H  0.16892684  0.98825436  0.94129856     0.36700
C805        C  0.32646402  0.51874661  0.66723911    -0.27500
C806        C  0.34038545  0.00021518  0.65043856     0.02100
C807        C  0.34211255  0.97975914  0.68004372     0.30200
C808        C  0.32019697  0.97953334  0.70591082    -0.19300
C809        C  0.29609573  0.49364574  0.70230397    -0.28700
C810        C  0.30438336  0.51864028  0.69286214     0.44200
C811        C  0.36309342  0.00034319  0.62213432     0.05400
O812        O  0.36562593  0.96060295  0.68486070    -0.57200
H813        H  0.32149512  0.96316130  0.72759716     0.18300
O814        O  0.29030039  0.54310396  0.70724115    -0.63900
H815        H  0.33246000  0.53816812  0.65988798     0.16800
C816        C  0.37229568  0.97747935  0.59718974     0.29000
C817        C  0.39536000  0.97716465  0.57333624    -0.24800
C818        C  0.40960409  0.99944395  0.57389684    -0.24100
C819        C  0.40962708  0.50698622  0.61662595     0.40500
C820        C  0.38657751  0.50645308  0.63993819    -0.26600
O821        O  0.35846351  0.95563533  0.59540855    -0.58500
H822        H  0.40247137  0.95910849  0.55509160     0.16100
O823        O  0.43159671  0.51699995  0.63345656    -0.59900
H824        H  0.38621643  0.51469845  0.67036105     0.14600
H825        H  0.30226562  0.54888834  0.72897349     0.46400
H826        H  0.37169528  0.93956437  0.60545152     0.41800
H827        H  0.42720795  0.53720940  0.62981904     0.45300
H828        H  0.36030600  0.94261140  0.67790626     0.36700
C829        C  0.39147201  0.01697013  0.86071731    -0.27500
C830        C  0.36729844  0.50332470  0.87387741     0.02100
C831        C  0.37483391  0.48267547  0.90299612     0.30200
C832        C  0.39856725  0.48230693  0.92702406    -0.19300
C833        C  0.41521532  0.50251075  0.92319864    -0.28700
C834        C  0.41465788  0.01746583  0.88573487     0.44200
C835        C  0.34348737  0.50271350  0.84562182     0.05400
O836        O  0.35933660  0.46248075  0.90793883    -0.57200
H837        H  0.40412887  0.46582525  0.94851355     0.18300
O838        O  0.43551797  0.02979781  0.87227159    -0.63900
H839        H  0.39083854  0.02596812  0.83107447     0.16800
C840        C  0.32295349  0.52607540  0.83961617     0.29000
C841        C  0.30052564  0.52460457  0.81342651    -0.24800
C842        C  0.29835237  0.50018574  0.79244702    -0.24100
C843        C  0.31393314  0.97547088  0.81414897     0.40500
C844        C  0.33686527  0.97731041  0.83904114    -0.26600
O845        O  0.32379336  0.54989596  0.86099523    -0.58500
H846        H  0.28440608  0.54240914  0.81016347     0.16100
O847        O  0.30466218  0.95088062  0.81053493    -0.59900
H848        H  0.34741328  0.95893486  0.85393259     0.14600
H849        H  0.44777578  0.01515816  0.85753744     0.46400
H850        H  0.32846531  0.56311185  0.84115723     0.41800
H851        H  0.31767927  0.93935856  0.79244544     0.45300
H852        H  0.34470235  0.47049834  0.92663837     0.36700
C853        C  0.02671171  0.62681864  0.59355074    -0.27500
C854        C  0.00584612  0.63525511  0.62117292     0.02100
C855        C  0.48404424  0.62055523  0.62358076     0.30200
C856        C  0.48348406  0.59741753  0.59920594    -0.19300
C857        C  0.00458492  0.58836616  0.57207837    -0.28700
C858        C  0.02607646  0.60366498  0.56876439     0.44200
C859        C  0.00657500  0.65940856  0.64762302     0.05400
O860        O  0.46337129  0.62840620  0.65028225    -0.57200
H861        H  0.46680842  0.58603810  0.60252878     0.18300
O862        O  0.04654564  0.59618355  0.54164002    -0.63900
H863        H  0.04341420  0.63827564  0.59113494     0.16800
C864        C  0.02619363  0.65861797  0.67923611     0.29000
C865        C  0.02544992  0.68123412  0.70534994    -0.24800
C866        C  0.00491574  0.70458009  0.70078543    -0.24100
C867        C  0.48513172  0.70516220  0.66934993     0.40500
C868        C  0.48607337  0.68267927  0.64307576    -0.26600
O869        O  0.04582794  0.63566224  0.68523159    -0.58500
H870        H  0.04092958  0.68055907  0.72917286     0.16100
O871        O  0.46404091  0.72710739  0.66535885    -0.59900
H872        H  0.47052904  0.68323291  0.61934575     0.14600
H873        H  0.03956014  0.60564341  0.51631436     0.46400
H874        H  0.03737782  0.62388408  0.70343311     0.41800
H875        H  0.46862549  0.73744800  0.64180245     0.45300
H876        H  0.47048565  0.62000609  0.67627225     0.36700
C877        C  0.97906284  0.66337193  0.80810244    -0.27500
C878        C  0.00082867  0.65239726  0.83435648     0.02100
C879        C  0.02378266  0.66567601  0.83848115     0.30200
C880        C  0.02450600  0.68980108  0.81706865    -0.19300
C881        C  0.00264520  0.70092363  0.79116080    -0.28700
C882        C  0.97982848  0.68750768  0.78662342     0.44200
C883        C  0.99955237  0.62688257  0.85683773     0.05400
O884        O  0.04604916  0.65453870  0.86205876    -0.57200
H885        H  0.04228788  0.69982267  0.82050638     0.18300
O886        O  0.45772382  0.69854321  0.76271054    -0.63900
H887        H  0.46124686  0.65340157  0.80471641     0.16800
C888        C  0.00169853  0.62618793  0.89920297     0.29000
C889        C  0.00163018  0.60150969  0.91959248    -0.24800
C890        C  0.99879438  0.57727179  0.89837322    -0.24100
C891        C  0.49572469  0.57833617  0.85589460     0.40500
C892        C  0.49623150  0.60292531  0.83561526    -0.26600
O893        O  0.00374189  0.64957156  0.92098426    -0.58500
H894        H  0.00384515  0.60139909  0.95213107     0.16100
O895        O  0.49313320  0.55530391  0.83359675    -0.59900
H896        H  0.49445882  0.60317391  0.80302211     0.14600
H897        H  0.45807449  0.68597708  0.73912338     0.46400
H898        H  0.98451554  0.65854209  0.92563850     0.41800
H899        H  0.47309004  0.55638325  0.82884139     0.45300
H900        H  0.04633484  0.66739104  0.88521060     0.36700
C901        C  0.03289048  0.83901645  0.69180735    -0.27500
C902        C  0.50831187  0.85670475  0.68131516     0.02100
C903        C  0.48306955  0.84773912  0.68691341     0.30200
C904        C  0.48271127  0.82185461  0.70360158    -0.19300
C905        C  0.00725667  0.80439698  0.71405036    -0.28700
C906        C  0.03247942  0.81291904  0.70756465     0.44200
C907        C  0.50939902  0.88298220  0.66043561     0.05400
O908        O  0.45884144  0.86329249  0.67357824    -0.57200
H909        H  0.46321579  0.81525878  0.70808233     0.18300
O910        O  0.05681142  0.79601747  0.71701598    -0.63900
H911        H  0.05249616  0.84533428  0.68717537     0.16800
C912        C  0.49377420  0.90827768  0.67272734     0.29000
C913        C  0.49256682  0.93178617  0.64876418    -0.24800
C914        C  0.50686617  0.93044238  0.61255895    -0.24100
C915        C  0.02456207  0.90570560  0.60262832     0.40500
C916        C  0.02546584  0.88232227  0.62618106    -0.26600
O917        O  0.48006127  0.91020966  0.70834980    -0.58500
H918        H  0.47945228  0.95071300  0.65767244     0.16100
O919        O  0.04025714  0.90368437  0.56890891    -0.59900
H920        H  0.03802120  0.86322227  0.61663121     0.14600
H921        H  0.06011038  0.78285603  0.69412871     0.46400
H922        H  0.46036072  0.91625626  0.70113721     0.41800
H923        H  0.05717961  0.91067828  0.57739132     0.45300
H924        H  0.44829937  0.86903694  0.69816123     0.36700
C925        C  0.02861972  0.87969242  0.88994783    -0.27500
C926        C  0.01022302  0.87869275  0.85731000     0.02100
C927        C  0.49246836  0.90297725  0.84553523     0.30200
C928        C  0.49228942  0.92732153  0.86769605    -0.19300
C929        C  0.00960906  0.92782332  0.90178395    -0.28700
C930        C  0.02858621  0.90399285  0.91188139     0.44200
C931        C  0.00897684  0.85193286  0.83723654     0.05400
O932        O  0.47459047  0.90294248  0.81326971    -0.57200
H933        H  0.47757729  0.94543201  0.85941902     0.18300
O934        O  0.04645930  0.90386504  0.94419372    -0.63900
H935        H  0.04238203  0.86126233  0.89954079     0.16800
C936        C  0.03312013  0.83464968  0.82478272     0.29000
C937        C  0.03165653  0.80901892  0.80752740    -0.24800
C938        C  0.00625767  0.80067850  0.80094645    -0.24100
C939        C  0.48208604  0.81768990  0.81339631     0.40500
C940        C  0.48356553  0.84305178  0.83180251    -0.26600
O941        O  0.05816231  0.84295031  0.82823732    -0.58500
H942        H  0.05030146  0.79608680  0.79755401     0.16100
O943        O  0.45690732  0.81029535  0.80600680    -0.59900
H944        H  0.46482429  0.85585587  0.84169477     0.14600
H945        H  0.06184704  0.91220957  0.93419314     0.46400
H946        H  0.05986124  0.85304794  0.80305740     0.41800
H947        H  0.45510206  0.79667850  0.82702875     0.45300
H948        H  0.48570919  0.90451251  0.78927546     0.36700
O949        O  0.01080615  0.44959865  0.46560211    -0.80000
O950        O  0.54928309  0.99041667  0.03270402    -0.80100
O951        O  0.53825528  0.49795169  0.44148381    -0.80100
O952        O  0.48751412  0.47577526  0.09248384    -0.80000
O953        O  0.56017700  0.02603301  0.47580366    -0.80100
O954        O  0.00703868  0.44822698  0.04558539    -0.80000
O955        O  0.52534228  0.50925768  0.08535189    -0.80000
O956        O  0.49362521  0.47602833  0.41675892    -0.80100
C957        C  0.50523445  0.45259798  0.42872076     1.09700
C958        C  0.54727590  0.49598510  0.07029409     1.09500
C959        C  0.56097458  0.00781364  0.44856876     1.09700
C960        C  0.00057818  0.45235377  0.08176015     1.09600
O961        O  0.94885664  0.47198344  0.04059874    -0.80000
O962        O  0.50728810  0.04873974  0.45855240    -0.80100
O963        O  0.95708558  0.01948356  0.45001115    -0.80000
O964        O  0.98461151  0.05175167  0.04680678    -0.80000
O965        O  0.52803409  0.04778105  0.03621271    -0.80100
O966        O  0.95227844  0.47547691  0.45945206    -0.80000
O967        O  0.94774922  0.01768105  0.05127842    -0.80000
O968        O  0.99887686  0.02782180  0.40160739    -0.80100
Co969      Co  0.98104624  0.46308960  0.50287852     1.51500
Co970      Co  0.52750783  0.01704802  0.99599599     1.51700
Co971      Co  0.49744335  0.00901088  0.45043683     1.51600
Co972      Co  0.98580354  0.51304488  0.06584772     1.51500
O973        O  0.99427331  0.49946668  0.50843472    -1.42000
C974        C  0.93607698  0.49484810  0.05405506     1.09600
C975        C  0.50235529  0.04960606  0.41996781     1.09700
C976        C  0.94303494  0.00027192  0.44701143     1.09600
C977        C  0.00620970  0.06192386  0.04923468     1.09600
C978        C  0.50411813  0.27772278  0.23484402     0.02400
C979        C  0.50227522  0.27610376  0.27691662     0.02400
C980        C  0.50150643  0.25072965  0.29486175    -0.18200
C981        C  0.50237392  0.22674479  0.27130380     0.02400
C982        C  0.50408720  0.22840954  0.22889511     0.02400
C983        C  0.50508467  0.25393746  0.21125238    -0.18200
H984        H  0.50680109  0.25529099  0.17888843     0.04400
H985        H  0.50046279  0.24961260  0.32735534     0.04400
C986        C  0.77419516  0.99781611  0.27096350     0.02400
C987        C  0.77254790  0.99795977  0.22836880     0.02400
C988        C  0.74738817  0.99580173  0.20886826    -0.18200
C989        C  0.72373692  0.99436554  0.23076756     0.02400
C990        C  0.72523394  0.99561083  0.27327102     0.02400
C991        C  0.75045194  0.99699314  0.29280075    -0.18200
H992        H  0.75160495  0.99746898  0.32545498     0.04400
H993        H  0.74617374  0.99534849  0.17622880     0.04400
C994        C  0.59547542  0.48657520  0.16221796    -0.27500
C995        C  0.62291159  0.98776273  0.14139496     0.02100
C996        C  0.62331440  0.98990531  0.09922198     0.30200
C997        C  0.59909074  0.99080586  0.07627764    -0.19300
C998        C  0.57397342  0.99013404  0.09478369    -0.28700
C999        C  0.57125244  0.48898566  0.13861023     0.44200
C1000       C  0.64814922  0.98870566  0.16605944     0.05400
O1001       O  0.64710734  0.99227695  0.08025288    -0.57200
H1002       H  0.59977386  0.99350036  0.04401250     0.18300
O1003       O  0.54653364  0.49188616  0.15743402    -0.63900
H1004       H  0.59418613  0.48725708  0.19474475     0.16800
C1005       C  0.64938614  0.01026406  0.19384364     0.29000
C1006       C  0.67413125  0.01213485  0.21429162    -0.24800
C1007       C  0.69767162  0.99214993  0.20858251    -0.24100
C1008       C  0.69384728  0.46391776  0.18624785     0.40500
C1009       C  0.66881430  0.46250339  0.16617153    -0.26600
O1010       O  0.62687440  0.03032264  0.19972029    -0.58500
H1011       H  0.67498305  0.02940717  0.23440193     0.16100
O1012       O  0.71528618  0.44235503  0.18293408    -0.59900
H1013       H  0.66691447  0.44453671  0.14793565     0.14600
H1014       H  0.54266173  0.47291951  0.15980874     0.46400
H1015       H  0.61913017  0.02557576  0.22543052     0.41800
H1016       H  0.71279158  0.42958725  0.20481249     0.45300
H1017       H  0.64802751  0.01219340  0.08120990     0.36700
C1018       C  0.60731498  0.98915373  0.35966029    -0.27500
C1019       C  0.63242892  0.99473222  0.37532165     0.02100
C1020       C  0.63251174  0.50556614  0.41486200     0.30200
C1021       C  0.60937722  0.50869189  0.43892488    -0.19300
C1022       C  0.58588947  0.00056646  0.42428411    -0.28700
C1023       C  0.58416251  0.99196706  0.38378791     0.44200
C1024       C  0.65578664  0.99474737  0.34820346     0.05400
O1025       O  0.65668467  0.51150668  0.43091498    -0.57200
H1026       H  0.61109786  0.51585176  0.46971265     0.18300
O1027       O  0.55964949  0.98768090  0.36681877    -0.63900
H1028       H  0.60530668  0.98379735  0.32812583     0.16800
C1029       C  0.66514939  0.47245220  0.32593626     0.29000
C1030       C  0.68771470  0.47239339  0.30128668    -0.24800
C1031       C  0.70085305  0.99556595  0.29822123    -0.24100
C1032       C  0.68973023  0.01917689  0.32036792     0.40500
C1033       C  0.66743061  0.01863911  0.34521757    -0.26600
O1034       O  0.65490578  0.44860234  0.33059560    -0.58300
H1035       H  0.69632617  0.45367826  0.28544565     0.16100
O1036       O  0.70058951  0.04285245  0.31788699    -0.59900
H1037       H  0.65910784  0.03697966  0.36213484     0.14600
H1038       H  0.55040477  0.00600226  0.35727621     0.46400
H1039       H  0.64355573  0.44687437  0.30594500     0.41800
H1040       H  0.69035754  0.05327766  0.29530226     0.45300
H1041       H  0.66804101  0.49341327  0.43737100     0.36700
C1042       C  0.81713115  0.02100150  0.14851277    -0.27500
C1043       C  0.84059109  0.49407093  0.15082214     0.02100
C1044       C  0.83249316  0.46902592  0.16079197     0.30200
C1045       C  0.81015894  0.46899505  0.18598542    -0.19300
C1046       C  0.79658676  0.99981670  0.20321880    -0.28700
C1047       C  0.79541063  0.02098813  0.17477079     0.44200
C1048       C  0.86442555  0.49475589  0.12473884     0.05400
O1049       O  0.84712423  0.44446357  0.14761358    -0.57200
H1050       H  0.80396386  0.44964424  0.19319046     0.18300
O1051       O  0.77299776  0.04165547  0.17221218    -0.63900
H1052       H  0.81571683  0.03714954  0.12636410     0.16800
C1053       C  0.86546149  0.48384263  0.08520486     0.29000
C1054       C  0.88872182  0.48422207  0.06183609    -0.24800
C1055       C  0.91088068  0.49572428  0.07730319    -0.24100
C1056       C  0.89918106  0.02305569  0.09703160     0.40500
C1057       C  0.87618735  0.02327995  0.12081194    -0.26600
O1058       O  0.84339743  0.47381064  0.06874217    -0.58500
H1059       H  0.88938618  0.47568257  0.03158625     0.16100
O1060       O  0.91220801  0.04544733  0.09885927    -0.59900
H1061       H  0.86914982  0.04112652  0.13953948     0.14600
H1062       H  0.77577629  0.05471674  0.19425859     0.46400
H1063       H  0.84988617  0.45383644  0.06451085     0.41800
H1064       H  0.90342337  0.05777917  0.07712858     0.45300
H1065       H  0.83433356  0.43633678  0.12952287     0.36700
C1066       C  0.88346059  0.52390019  0.37060325    -0.27500
C1067       C  0.86986285  0.00412595  0.37297815     0.02100
C1068       C  0.87156775  0.99227586  0.41166735     0.30200
C1069       C  0.89516014  0.99193373  0.43606911    -0.19300
C1070       C  0.91693559  0.00430386  0.42336439    -0.28700
C1071       C  0.90719111  0.52365811  0.39486261     0.44200
C1072       C  0.84602665  0.00256324  0.34503243     0.05400
O1073       O  0.85036162  0.98080834  0.42590383    -0.57200
H1074       H  0.89652327  0.98182834  0.46501966     0.18300
O1075       O  0.92279994  0.54369232  0.38949620    -0.63900
H1076       H  0.87824676  0.53976074  0.34809902     0.16800
C1077       C  0.83231251  0.02592523  0.32414331     0.29000
C1078       C  0.80957814  0.02392007  0.29873847    -0.24800
C1079       C  0.80007254  0.99889919  0.29397597    -0.24100
C1080       C  0.81894528  0.47690384  0.29796646     0.40500
C1081       C  0.84131264  0.47830178  0.32425716    -0.26600
O1082       O  0.83985757  0.05115040  0.33040764    -0.58500
H1083       H  0.79875723  0.04215851  0.28378492     0.16100
O1084       O  0.81633486  0.45226390  0.27998866    -0.59900
H1085       H  0.85692773  0.46015669  0.32820902     0.14600
H1086       H  0.93534978  0.53674309  0.36742308     0.46400
H1087       H  0.84806483  0.05550677  0.30485217     0.41800
H1088       H  0.83200091  0.44793502  0.26157601     0.45300
H1089       H  0.83749943  0.99638915  0.43765409     0.36700
C1090       C  0.52862114  0.12598003  0.09524508    -0.27500
C1091       C  0.50667518  0.13525079  0.12081380     0.02100
C1092       C  0.98416663  0.12130130  0.12077915     0.30200
C1093       C  0.98388939  0.09832759  0.09593597    -0.19300
C1094       C  0.50610885  0.08838429  0.07108569    -0.28700
C1095       C  0.52841651  0.10278381  0.07033872     0.44200
C1096       C  0.50707157  0.15934308  0.14779201     0.05400
O1097       O  0.96261083  0.12950591  0.14588689    -0.57200
H1098       H  0.96654498  0.08765714  0.09736740     0.18300
O1099       O  0.55023237  0.09423587  0.04587475    -0.63900
H1100       H  0.54593922  0.13674056  0.09465289     0.16800
C1101       C  0.52768330  0.15935981  0.17791391     0.29000
C1102       C  0.52648262  0.18173357  0.20468930    -0.24800
C1103       C  0.50476556  0.20416140  0.20189727    -0.24100
C1104       C  0.98418816  0.20405118  0.17184314     0.40500
C1105       C  0.98542598  0.18179089  0.14514062    -0.26600
O1106       O  0.54879766  0.13745388  0.18178022    -0.58500
H1107       H  0.54254616  0.18165349  0.22752696     0.16100
O1108       O  0.96212319  0.22513084  0.16960114    -0.59900
H1109       H  0.96925347  0.18191839  0.12245551     0.14600
H1110       H  0.54527234  0.10398621  0.02009220     0.46400
H1111       H  0.54175902  0.12430300  0.19940985     0.41800
H1112       H  0.96579238  0.23653593  0.14667227     0.45300
H1113       H  0.96878493  0.12129533  0.17237792     0.36700
C1114       C  0.47911776  0.16189733  0.30749175    -0.27500
C1115       C  0.50069155  0.15141222  0.33432885     0.02100
C1116       C  0.52302663  0.16544946  0.33959881     0.30200
C1117       C  0.52337430  0.18982024  0.31860988    -0.19300
C1118       C  0.50173098  0.20042258  0.29200340    -0.28700
C1119       C  0.47947269  0.18631159  0.28647895     0.44200
C1120       C  0.49985737  0.12569444  0.35645959     0.05400
O1121       O  0.54510712  0.15479648  0.36386248    -0.57200
H1122       H  0.54069761  0.20042077  0.32289671     0.18300
O1123       O  0.95743149  0.19700457  0.26219261    -0.63900
H1124       H  0.96174717  0.15135528  0.30334657     0.16800
C1125       C  0.50070935  0.12519704  0.39886030     0.29000
C1126       C  0.50121325  0.10041242  0.41911792    -0.24800
C1127       C  0.50039557  0.07580478  0.39770510    -0.24100
C1128       C  0.99880979  0.07654061  0.35511234     0.40500
C1129       C  0.99857311  0.10132792  0.33495156    -0.26600
O1130       O  0.50108261  0.14885499  0.42081495    -0.58500
H1131       H  0.50231342  0.10051244  0.45174343     0.16100
O1132       O  0.99853311  0.05304810  0.33270096    -0.59900
H1133       H  0.99792488  0.10142655  0.30230961     0.14600
H1134       H  0.95752008  0.18385213  0.23935573     0.46400
H1135       H  0.48150179  0.15726664  0.42372020     0.41800
H1136       H  0.97882719  0.05246949  0.32720773     0.45300
H1137       H  0.54439525  0.16738311  0.38747741     0.36700
C1138       C  0.53170413  0.33709081  0.18907799    -0.27500
C1139       C  0.00746059  0.35617930  0.18199034     0.02100
C1140       C  0.98205770  0.34906565  0.19208979     0.30200
C1141       C  0.98119717  0.32328132  0.20878525    -0.19300
C1142       C  0.50538841  0.30426440  0.21535293    -0.28700
C1143       C  0.53075392  0.31126433  0.20545269     0.44200
C1144       C  0.00861568  0.38182697  0.15952525     0.05400
O1145       O  0.95788744  0.36642905  0.18325713    -0.57200
H1146       H  0.96157084  0.31800209  0.21635118     0.18300
O1147       O  0.55474271  0.29320623  0.21254034    -0.63900
H1148       H  0.55139242  0.34211396  0.18129153     0.16800
C1149       C  0.99649351  0.40806781  0.17373297     0.29000
C1150       C  0.99528359  0.43126593  0.14907905    -0.24800
C1151       C  0.00594664  0.42870555  0.11007945    -0.24100
C1152       C  0.51963595  0.40252054  0.09720069     0.40500
C1153       C  0.52077825  0.37956908  0.12175374    -0.26600
O1154       O  0.98623910  0.41121563  0.21184022    -0.58500
H1155       H  0.98516328  0.45110922  0.16007678     0.16100
O1156       O  0.53090172  0.39865641  0.05980960    -0.59900
H1157       H  0.53032546  0.35959133  0.11043034     0.14600
H1158       H  0.55721001  0.28125962  0.18821722     0.46400
H1159       H  0.96626752  0.41814603  0.20824502     0.41800
H1160       H  0.54989378  0.40238419  0.06345621     0.45300
H1161       H  0.95006569  0.37265996  0.20968063     0.36700
C1162       C  0.52652244  0.37945042  0.39209531    -0.27500
C1163       C  0.50735070  0.37810894  0.36056589     0.02100
C1164       C  0.98957048  0.40235076  0.34866052     0.30200
C1165       C  0.99056069  0.42716018  0.36911385    -0.19300
C1166       C  0.50883798  0.42815891  0.40195955    -0.28700
C1167       C  0.52749071  0.40416981  0.41255208     0.44200
C1168       C  0.50606753  0.35127150  0.34066319     0.05400
O1169       O  0.97047482  0.40187798  0.31806473    -0.57200
H1170       H  0.97591593  0.44528665  0.36070871     0.18300
O1171       O  0.54604681  0.40435168  0.44394933    -0.63900
H1172       H  0.54029165  0.36103691  0.40175394     0.16800
C1173       C  0.53003263  0.33488176  0.32591437     0.29000
C1174       C  0.52861377  0.30963350  0.30740048    -0.24800
C1175       C  0.50341900  0.30062203  0.30225944    -0.24100
C1176       C  0.97942280  0.31667970  0.31714999     0.40500
C1177       C  0.98087047  0.34178462  0.33651437    -0.26600
O1178       O  0.55483795  0.34373296  0.32834827    -0.58500
H1179       H  0.54711240  0.29746823  0.29556484     0.16100
O1180       O  0.95439213  0.30865701  0.31124220    -0.59900
H1181       H  0.96227672  0.35397257  0.34801398     0.14600
H1182       H  0.56204732  0.41073797  0.43217442     0.46400
H1183       H  0.55546919  0.35469396  0.30367792     0.41800
H1184       H  0.95323250  0.29539948  0.33304328     0.45300
H1185       H  0.98100746  0.40054346  0.29291306     0.36700
O1186       O  0.01078441  0.44959270  0.96560945    -0.80000
O1187       O  0.54927092  0.99041508  0.53273489    -0.80100
O1188       O  0.53825211  0.49794399  0.94147060    -0.80100
O1189       O  0.48755848  0.47575956  0.59249147    -0.80000
O1190       O  0.56018053  0.02602537  0.97575911    -0.80100
O1191       O  0.00708137  0.44821818  0.54557677    -0.80000
O1192       O  0.52536886  0.50926027  0.58534622    -0.80000
O1193       O  0.49361815  0.47602882  0.91675793    -0.80100
C1194       C  0.50522222  0.45259595  0.92871907     1.09700
C1195       C  0.54730077  0.49599645  0.57027222     1.09500
C1196       C  0.56097534  0.00779801  0.94853627     1.09700
C1197       C  0.00062734  0.45233989  0.58175458     1.09600
O1198       O  0.94889093  0.47195658  0.54062448    -0.80000
O1199       O  0.50728980  0.04873035  0.95851589    -0.80100
O1200       O  0.95709131  0.01946797  0.94997289    -0.80000
O1201       O  0.98460039  0.05175243  0.54684435    -0.80000
O1202       O  0.52802127  0.04777930  0.53626047    -0.80100
O1203       O  0.95226402  0.47549288  0.95943225    -0.80000
O1204       O  0.94773756  0.01769269  0.55130896    -0.80000
O1205       O  0.99887761  0.02780859  0.90156198    -0.80100
Co1206     Co  0.98101957  0.46310066  0.00287142     1.51500
Co1207     Co  0.52750048  0.01705201  0.49603079     1.51700
Co1208     Co  0.49744895  0.00900230  0.95040487     1.51600
Co1209     Co  0.98582799  0.51303189  0.56585814     1.51500
O1210       O  0.99426357  0.49947009  0.00843182    -1.42000
C1211       C  0.93610845  0.49481817  0.55408757     1.09600
C1212       C  0.50235339  0.04959552  0.91993253     1.09700
C1213       C  0.94304892  0.00025000  0.94697449     1.09600
C1214       C  0.00619946  0.06192039  0.54929178     1.09600
C1215       C  0.50412006  0.27772176  0.73483936     0.02400
C1216       C  0.50225041  0.27611615  0.77690825     0.02400
C1217       C  0.50144366  0.25075453  0.79486349    -0.18200
C1218       C  0.50230138  0.22676565  0.77131899     0.02400
C1219       C  0.50405096  0.22841548  0.72891270     0.02400
C1220       C  0.50508645  0.25393216  0.71126078    -0.18200
H1221       H  0.50682936  0.25527422  0.67889991     0.04400
H1222       H  0.50038074  0.24964996  0.82735611     0.04400
C1223       C  0.77417926  0.99782263  0.77099090     0.02400
C1224       C  0.77253610  0.99797783  0.72839889     0.02400
C1225       C  0.74737475  0.99584689  0.70888484    -0.18200
C1226       C  0.72371944  0.99441830  0.73077676     0.02400
C1227       C  0.72521533  0.99564943  0.77327927     0.02400
C1228       C  0.75043140  0.99701940  0.79282082    -0.18200
H1229       H  0.75158044  0.99749421  0.82547530     0.04400
H1230       H  0.74616327  0.99540713  0.67624482     0.04400
C1231       C  0.59552597  0.48656996  0.66216305    -0.27500
C1232       C  0.62288944  0.98780070  0.64142829     0.02100
C1233       C  0.62329620  0.98991141  0.59925156     0.30200
C1234       C  0.59907514  0.99079614  0.57630777    -0.19300
C1235       C  0.57395779  0.99013145  0.59481663    -0.28700
C1236       C  0.57129781  0.48898095  0.63856879     0.44200
C1237       C  0.64812667  0.98875827  0.66608588     0.05400
O1238       O  0.64709231  0.99226165  0.58027561    -0.57200
H1239       H  0.59976063  0.99347266  0.54403901     0.18300
O1240       O  0.54658501  0.49186210  0.65740543    -0.63900
H1241       H  0.59424559  0.48723710  0.69469109     0.16800
C1242       C  0.64937384  0.01033981  0.69382719     0.29000
C1243       C  0.67412132  0.01221249  0.71427071    -0.24800
C1244       C  0.69765325  0.99221096  0.70859060    -0.24100
C1245       C  0.69388910  0.46393585  0.68618680     0.40500
C1246       C  0.66886268  0.46252436  0.66609042    -0.26600
O1247       O  0.62687067  0.03041495  0.69966749    -0.58500
H1248       H  0.67498207  0.02949628  0.73435578     0.16100
O1249       O  0.71533327  0.44237873  0.68286775    -0.59900
H1250       H  0.66696931  0.44456225  0.64784061     0.14600
H1251       H  0.54274193  0.47288743  0.65981817     0.46400
H1252       H  0.61910643  0.02568287  0.72537019     0.41800
H1253       H  0.71282956  0.42959523  0.70472051     0.45300
H1254       H  0.64800760  0.01217973  0.58117407     0.36700
C1255       C  0.60730572  0.98913149  0.85963135    -0.27500
C1256       C  0.63241503  0.99472399  0.87528795     0.02100
C1257       C  0.63250908  0.50555805  0.91482448     0.30200
C1258       C  0.60937657  0.50868528  0.93889124    -0.19300
C1259       C  0.58588728  0.00053970  0.92425707    -0.28700
C1260       C  0.58415899  0.99193042  0.88376572     0.44200
C1261       C  0.65576542  0.99475463  0.84816920     0.05400
O1262       O  0.65668252  0.51150045  0.93087313    -0.57200
H1263       H  0.61110025  0.51584847  0.96967665     0.18300
O1264       O  0.55965093  0.98761849  0.86680881    -0.63900
H1265       H  0.60529674  0.98377334  0.82809764     0.16800
C1266       C  0.66514593  0.47244404  0.82589243     0.29000
C1267       C  0.68771278  0.47238891  0.80124519    -0.24800
C1268       C  0.70083420  0.99559439  0.79821448    -0.24100
C1269       C  0.68969672  0.01920377  0.82034954     0.40500
C1270       C  0.66739750  0.01865431  0.84519281    -0.26600
O1271       O  0.65490628  0.44859178  0.83055032    -0.58300
H1272       H  0.69632509  0.45367600  0.78539950     0.16100
O1273       O  0.70054047  0.04288815  0.81785967    -0.59900
H1274       H  0.65906482  0.03699155  0.86211027     0.14600
H1275       H  0.55038416  0.00593441  0.85727594     0.46400
H1276       H  0.64355231  0.44686549  0.80590330     0.41800
H1277       H  0.69024592  0.05334287  0.79535066     0.45300
H1278       H  0.66804370  0.49340734  0.93731725     0.36700
C1279       C  0.81716010  0.02107743  0.64865935    -0.27500
C1280       C  0.84061911  0.49408457  0.65085843     0.02100
C1281       C  0.83251722  0.46904273  0.66083044     0.30200
C1282       C  0.81018221  0.46901633  0.68602191    -0.19300
C1283       C  0.79657955  0.99983606  0.70326853    -0.28700
C1284       C  0.79543942  0.02105908  0.67491530     0.44200
C1285       C  0.86445606  0.49475868  0.62477869     0.05400
O1286       O  0.84714161  0.44447878  0.64764721    -0.57200
H1287       H  0.80398452  0.44966711  0.69322925     0.18300
O1288       O  0.77306315  0.04177292  0.67245179    -0.63900
H1289       H  0.81577854  0.03726912  0.62658591     0.16800
C1290       C  0.86546726  0.48388417  0.58522284     0.29000
C1291       C  0.88873118  0.48424567  0.56185456    -0.24800
C1292       C  0.91091918  0.49568992  0.57734828    -0.24100
C1293       C  0.89929167  0.02301395  0.59733099     0.40500
C1294       C  0.87628844  0.02324445  0.62109067    -0.26600
O1295       O  0.84337779  0.47390575  0.56874206    -0.58500
H1296       H  0.88937469  0.47574067  0.53158455     0.16100
O1297       O  0.91244552  0.04531363  0.59939714    -0.59900
H1298       H  0.86933217  0.04103262  0.63997231     0.14600
H1299       H  0.77588168  0.05477934  0.69455368     0.46400
H1300       H  0.84982494  0.45392379  0.56452166     0.41800
H1301       H  0.90364744  0.05782014  0.57787384     0.45300
H1302       H  0.83435372  0.43636874  0.62953018     0.36700
C1303       C  0.88345361  0.52394990  0.87061728    -0.27500
C1304       C  0.86984658  0.00409634  0.87300462     0.02100
C1305       C  0.87163132  0.99210430  0.91159837     0.30200
C1306       C  0.89523089  0.99176518  0.93597896    -0.19300
C1307       C  0.91693524  0.00427359  0.92335653    -0.28700
C1308       C  0.90718836  0.52369545  0.89487048     0.44200
C1309       C  0.84600099  0.00254755  0.84507593     0.05400
O1310       O  0.85049302  0.98050172  0.92576609    -0.57200
H1311       H  0.89665445  0.98155465  0.96485220     0.18300
O1312       O  0.92281484  0.54371264  0.88948844    -0.63900
H1313       H  0.87825117  0.53980406  0.84810124     0.16800
C1314       C  0.83217814  0.02595788  0.82441105     0.29000
C1315       C  0.80944728  0.02396236  0.79899927    -0.24800
C1316       C  0.80005357  0.99890149  0.79400425    -0.24100
C1317       C  0.81894209  0.47694563  0.79800454     0.40500
C1318       C  0.84130307  0.47835475  0.82429908    -0.26600
O1319       O  0.83961057  0.05120974  0.83091627    -0.58500
H1320       H  0.79854233  0.04223362  0.78422010     0.16100
O1321       O  0.81633778  0.45229898  0.78004300    -0.59900
H1322       H  0.85691679  0.46021086  0.82827250     0.14600
H1323       H  0.93536253  0.53674581  0.86742092     0.46400
H1324       H  0.84772260  0.05574885  0.80537928     0.41800
H1325       H  0.83200477  0.44796809  0.76163231     0.45300
H1326       H  0.83756345  0.99601474  0.93755196     0.36700
C1327       C  0.52861832  0.12593500  0.59539582    -0.27500
C1328       C  0.50664619  0.13522535  0.62090658     0.02100
C1329       C  0.98411780  0.12131166  0.62080205     0.30200
C1330       C  0.98384645  0.09834306  0.59594525    -0.19300
C1331       C  0.50609033  0.08837359  0.57115046    -0.28700
C1332       C  0.52841919  0.10274661  0.57047529     0.44200
C1333       C  0.50703625  0.15931682  0.64788137     0.05400
O1334       O  0.96252541  0.12955186  0.64583277    -0.57200
H1335       H  0.96647925  0.08769967  0.59730964     0.18300
O1336       O  0.55026320  0.09417758  0.54607189    -0.63900
H1337       H  0.54595261  0.13667548  0.59485866     0.16800
C1338       C  0.52760422  0.15931060  0.67807430     0.29000
C1339       C  0.52640641  0.18169931  0.70481853    -0.24800
C1340       C  0.50473308  0.20416268  0.70192708    -0.24100
C1341       C  0.98421378  0.20408104  0.67179436     0.40500
C1342       C  0.98545090  0.18180433  0.64512407    -0.26600
O1343       O  0.54867213  0.13736933  0.68203818    -0.58500
H1344       H  0.54243705  0.18160163  0.72771181     0.16100
O1345       O  0.96219573  0.22520530  0.66943579    -0.59900
H1346       H  0.96932007  0.18195314  0.62236787     0.14600
H1347       H  0.54535699  0.10394959  0.52029342     0.46400
H1348       H  0.54157065  0.12425498  0.69965844     0.41800
H1349       H  0.96592063  0.23655002  0.64646896     0.45300
H1350       H  0.96865862  0.12137180  0.67235725     0.36700
C1351       C  0.47907442  0.16187746  0.80743165    -0.27500
C1352       C  0.50061165  0.15143466  0.83435267     0.02100
C1353       C  0.52290030  0.16552446  0.83972773     0.30200
C1354       C  0.52324580  0.18989484  0.81873932    -0.19300
C1355       C  0.50164413  0.20045121  0.79203658    -0.28700
C1356       C  0.47942411  0.18629556  0.78642404     0.44200
C1357       C  0.49979046  0.12570539  0.85646082     0.05400
O1358       O  0.54494300  0.15492305  0.86409515    -0.57200
H1359       H  0.54053862  0.20053003  0.82309927     0.18300
O1360       O  0.95742166  0.19693655  0.76202309    -0.63900
H1361       H  0.96174048  0.15128846  0.80318255     0.16800
C1362       C  0.50055934  0.12521198  0.89886133     0.29000
C1363       C  0.50108742  0.10041877  0.91910501    -0.24800
C1364       C  0.50037467  0.07579763  0.89767645    -0.24100
C1365       C  0.99886681  0.07652730  0.85507617     0.40500
C1366       C  0.99860825  0.10132489  0.83493187    -0.26600
O1367       O  0.50082651  0.14888253  0.92082979    -0.58500
H1368       H  0.50212059  0.10052306  0.95173290     0.16100
O1369       O  0.99870465  0.05302062  0.83265262    -0.59900
H1370       H  0.99803431  0.10142032  0.80228975     0.14600
H1371       H  0.95755618  0.18374781  0.73922387     0.46400
H1372       H  0.48122668  0.15726469  0.92360678     0.41800
H1373       H  0.97901919  0.05236565  0.82711203     0.45300
H1374       H  0.54416114  0.16752905  0.88769462     0.36700
C1375       C  0.53172924  0.33706287  0.68903578    -0.27500
C1376       C  0.00750107  0.35616686  0.68197907     0.02100
C1377       C  0.98209616  0.34907431  0.69211557     0.30200
C1378       C  0.98122650  0.32329370  0.70881472    -0.19300
C1379       C  0.50540163  0.30425720  0.71533880    -0.28700
C1380       C  0.53076935  0.31123799  0.70540771     0.44200
C1381       C  0.00866229  0.38181197  0.65951261     0.05400
O1382       O  0.95793052  0.36645354  0.68331198    -0.57200
H1383       H  0.96159874  0.31803110  0.71641089     0.18300
O1384       O  0.55475130  0.29316343  0.71246425    -0.63900
H1385       H  0.55141913  0.34207262  0.68122864     0.16800
C1386       C  0.99655826  0.40805585  0.67373025     0.29000
C1387       C  0.99535026  0.43125300  0.64907629    -0.24800
C1388       C  0.00600043  0.42868969  0.61006921    -0.24100
C1389       C  0.51967668  0.40250432  0.59718772     0.40500
C1390       C  0.52081103  0.37955174  0.62173598    -0.26600
O1391       O  0.98632146  0.41120762  0.71184785    -0.58500
H1392       H  0.98524210  0.45109884  0.66008144     0.16100
O1393       O  0.53094145  0.39864055  0.55979607    -0.59900
H1394       H  0.53034809  0.35957217  0.61040645     0.14600
H1395       H  0.55719999  0.28122497  0.68813125     0.46400
H1396       H  0.96635194  0.41815674  0.70827249     0.41800
H1397       H  0.54994113  0.40234577  0.56344929     0.45300
H1398       H  0.95012190  0.37267995  0.70974512     0.36700
C1399       C  0.52652376  0.37945725  0.89206283    -0.27500
C1400       C  0.50734819  0.37811800  0.86053816     0.02100
C1401       C  0.98956726  0.40236124  0.84865109     0.30200
C1402       C  0.99055591  0.42716774  0.86911149    -0.19300
C1403       C  0.50883067  0.42816171  0.90194895    -0.28700
C1404       C  0.52748969  0.40417402  0.91252814     0.44200
C1405       C  0.50606176  0.35128237  0.84063483     0.05400
O1406       O  0.97046438  0.40188918  0.81806534    -0.57200
H1407       H  0.97590694  0.44529330  0.86071541     0.18300
O1408       O  0.54605147  0.40435528  0.94391784    -0.63900
H1409       H  0.54029685  0.36104387  0.90171253     0.16800
C1410       C  0.53002423  0.33488942  0.82588234     0.29000
C1411       C  0.52859966  0.30964148  0.80737255    -0.24800
C1412       C  0.50340189  0.30063486  0.80224084    -0.24100
C1413       C  0.97941165  0.31669951  0.81713865     0.40500
C1414       C  0.98086636  0.34180239  0.83650089    -0.26600
O1415       O  0.55483204  0.34373588  0.82831178    -0.58500
H1416       H  0.54709542  0.29747273  0.79553323     0.16100
O1417       O  0.95437724  0.30868564  0.81122575    -0.59900
H1418       H  0.96227545  0.35399294  0.84800471     0.14600
H1419       H  0.56205495  0.41072889  0.93213127     0.46400
H1420       H  0.55547473  0.35467454  0.80362216     0.41800
H1421       H  0.95320975  0.29543132  0.83302810     0.45300
H1422       H  0.98098504  0.40060049  0.79290570     0.36700
O1423       O  0.01010772  0.94828548  0.46649961    -0.80000
O1424       O  0.54851142  0.49114112  0.03272563    -0.80100
O1425       O  0.53988529  0.99578840  0.44247566    -0.80100
O1426       O  0.48782771  0.97687517  0.09300580    -0.80000
O1427       O  0.55865085  0.52754327  0.47613414    -0.80100
O1428       O  0.00671445  0.94808351  0.04685565    -0.80000
O1429       O  0.52646130  0.00924136  0.08527339    -0.80000
O1430       O  0.49412290  0.97533263  0.41758504    -0.80100
C1431       C  0.50516580  0.95174458  0.42947315     1.09700
C1432       C  0.54832895  0.99587222  0.07005034     1.09500
C1433       C  0.55930514  0.50997437  0.44800749     1.09700
C1434       C  0.00089673  0.95327069  0.08309751     1.09600
O1435       O  0.94901945  0.97339949  0.04191730    -0.80000
O1436       O  0.50572615  0.54971889  0.45895787    -0.80100
O1437       O  0.95508969  0.51915875  0.44979539    -0.80000
O1438       O  0.98303773  0.55155884  0.04846564    -0.80000
O1439       O  0.52637604  0.54817450  0.03671919    -0.80100
O1440       O  0.95229262  0.97632035  0.46079426    -0.80000
O1441       O  0.94659463  0.51631832  0.05271678    -0.80000
O1442       O  0.99639945  0.52943029  0.40179642    -0.80100
Co1443     Co  0.98088866  0.96326695  0.50405932     1.51500
Co1444     Co  0.52626699  0.51779592  0.99611098     1.51700
Co1445     Co  0.49567811  0.50996637  0.45010873     1.51600
Co1446     Co  0.98683978  0.01362947  0.06538203     1.51500
O1447       O  0.99535866  0.99908367  0.50875822    -1.42000
C1448       C  0.93635303  0.99686623  0.05338467     1.09600
C1449       C  0.50038114  0.55097392  0.42043809     1.09700
C1450       C  0.94188038  0.49929940  0.44616344     1.09600
C1451       C  0.00456011  0.56196504  0.05029849     1.09600
C1452       C  0.50628477  0.77783247  0.23368260     0.02400
C1453       C  0.50509243  0.77614076  0.27581397     0.02400
C1454       C  0.50392492  0.75090369  0.29383816    -0.18200
C1455       C  0.50370547  0.72709336  0.27027625     0.02400
C1456       C  0.50477995  0.72880011  0.22774957     0.02400
C1457       C  0.50622766  0.75422410  0.21006845    -0.18200
H1458       H  0.50757942  0.75563796  0.17766189     0.04400
H1459       H  0.50321567  0.74979115  0.32637226     0.04400
C1460       C  0.77267910  0.49797405  0.26953733     0.02400
C1461       C  0.77188609  0.49313299  0.22749853     0.02400
C1462       C  0.74718456  0.48878646  0.20860897    -0.18200
C1463       C  0.72311644  0.48988169  0.23067037     0.02400
C1464       C  0.72394111  0.49535468  0.27252771     0.02400
C1465       C  0.74862878  0.49929077  0.29136833    -0.18200
H1466       H  0.74928520  0.50273492  0.32367627     0.04400
H1467       H  0.74649548  0.48539959  0.17630668     0.04400
C1468       C  0.59809868  0.98582460  0.15990590    -0.27500
C1469       C  0.62116544  0.48386072  0.14413205     0.02100
C1470       C  0.62246273  0.48264860  0.10186079     0.30200
C1471       C  0.59832504  0.48507087  0.07825704    -0.19300
C1472       C  0.57245089  0.48906361  0.09613228    -0.28700
C1473       C  0.57372456  0.98694634  0.13690970     0.44200
C1474       C  0.64644965  0.48423887  0.16902123     0.05400
O1475       O  0.64721811  0.48034100  0.08325306    -0.57200
H1476       H  0.59988999  0.48515574  0.04578049     0.18300
O1477       O  0.54975744  0.98542042  0.15596637    -0.63900
H1478       H  0.59758979  0.98382082  0.19231323     0.16800
C1479       C  0.64925115  0.50737268  0.19296857     0.29000
C1480       C  0.67438482  0.50901775  0.21227593    -0.24800
C1481       C  0.69684887  0.48744728  0.20924863    -0.24100
C1482       C  0.69619030  0.97018709  0.18154108     0.40500
C1483       C  0.67167200  0.96877059  0.16017614    -0.26600
O1484       O  0.62801550  0.52918399  0.19579928    -0.58500
H1485       H  0.67644042  0.52740820  0.22939778     0.16100
O1486       O  0.71860142  0.94999594  0.17581507    -0.59900
H1487       H  0.67096506  0.95201824  0.13898190     0.14600
H1488       H  0.54805054  0.96569563  0.15471261     0.46400
H1489       H  0.61965681  0.52701707  0.22213536     0.41800
H1490       H  0.71752181  0.93613670  0.19681209     0.45300
H1491       H  0.65023765  0.49951451  0.07977170     0.36700
C1492       C  0.60578340  0.49064830  0.35918180    -0.27500
C1493       C  0.63067447  0.49708248  0.37439270     0.02100
C1494       C  0.63454105  0.00187766  0.41634418     0.30200
C1495       C  0.61136763  0.00493262  0.44039297    -0.19300
C1496       C  0.58412713  0.50326924  0.42336380    -0.28700
C1497       C  0.58258946  0.49373362  0.38327766     0.44200
C1498       C  0.65416951  0.49645642  0.34740882     0.05400
O1499       O  0.65901319  0.00660835  0.43294078    -0.57200
H1500       H  0.61321102  0.01129208  0.47155059     0.18300
O1501       O  0.55826149  0.48860065  0.36669830    -0.63900
H1502       H  0.60399440  0.48432288  0.32801067     0.16800
C1503       C  0.66631903  0.97141936  0.32492519     0.29000
C1504       C  0.68883742  0.97188964  0.30028349    -0.24800
C1505       C  0.69955187  0.49608790  0.29772018    -0.24100
C1506       C  0.68837455  0.52018126  0.31875465     0.40500
C1507       C  0.66580335  0.52026416  0.34328518    -0.26600
O1508       O  0.65552542  0.94772283  0.32751081    -0.58300
H1509       H  0.69717767  0.95365897  0.28314978     0.16100
O1510       O  0.69949972  0.54366007  0.31561712    -0.59900
H1511       H  0.65733255  0.53900125  0.35918591     0.14600
H1512       H  0.54902129  0.50642218  0.35539101     0.46400
H1513       H  0.64379522  0.94734404  0.30289878     0.41800
H1514       H  0.68732140  0.55538724  0.29616905     0.45300
H1515       H  0.66889196  0.98827782  0.44147640     0.36700
C1516       C  0.82643307  0.51872374  0.16720720    -0.27500
C1517       C  0.84039606  0.00019627  0.15038757     0.02100
C1518       C  0.84215788  0.97979426  0.18008139     0.30200
C1519       C  0.82023828  0.97956490  0.20594094    -0.19300
C1520       C  0.79607533  0.49361475  0.20227846    -0.28700
C1521       C  0.80435884  0.51861135  0.19283839     0.44200
C1522       C  0.86310080  0.00031550  0.12206913     0.05400
O1523       O  0.86570977  0.96070199  0.18499767    -0.57200
H1524       H  0.82156686  0.96322939  0.22769107     0.18300
O1525       O  0.79027850  0.54307253  0.20722913    -0.63900
H1526       H  0.83242281  0.53814842  0.15985750     0.16800
C1527       C  0.87239688  0.97738487  0.09729842     0.29000
C1528       C  0.89545530  0.97707372  0.07343521    -0.24800
C1529       C  0.90960052  0.99942391  0.07380503    -0.24100
C1530       C  0.90955578  0.50706987  0.11654656     0.40500
C1531       C  0.88651152  0.50651574  0.13986071    -0.26600
O1532       O  0.85865493  0.95547235  0.09568437    -0.58500
H1533       H  0.90264213  0.95896450  0.05533899     0.16100
O1534       O  0.93149457  0.51714761  0.13335568    -0.59900
H1535       H  0.88612938  0.51479872  0.17026264     0.14600
H1536       H  0.80223682  0.54884046  0.22898374     0.46400
H1537       H  0.87195240  0.93945776  0.10575022     0.41800
H1538       H  0.92706598  0.53735154  0.12967631     0.45300
H1539       H  0.86044124  0.94267079  0.17815442     0.36700
C1540       C  0.89156295  0.01685973  0.36060947    -0.27500
C1541       C  0.86732284  0.50325620  0.37384451     0.02100
C1542       C  0.87487297  0.48260249  0.40295246     0.30200
C1543       C  0.89860083  0.48224893  0.42698928    -0.19300
C1544       C  0.91523089  0.50247088  0.42318236    -0.28700
C1545       C  0.91474260  0.01735316  0.38563852     0.44200
C1546       C  0.84350302  0.50264719  0.34560114     0.05400
O1547       O  0.85939190  0.46239299  0.40788328    -0.57200
H1548       H  0.90417106  0.46576559  0.44847396     0.18300
O1549       O  0.93568122  0.02953612  0.37209252    -0.63900
H1550       H  0.89099562  0.02574243  0.33089677     0.16800
C1551       C  0.82296407  0.52600858  0.33962530     0.29000
C1552       C  0.80053134  0.52454765  0.31344107    -0.24800
C1553       C  0.79835634  0.50013996  0.29243299    -0.24100
C1554       C  0.81385601  0.97551571  0.31432411     0.40500
C1555       C  0.83679333  0.97735742  0.33919490    -0.26600
O1556       O  0.82380612  0.54982037  0.36102528    -0.58500
H1557       H  0.78440963  0.54235254  0.31020243     0.16100
O1558       O  0.80449691  0.95096345  0.31092254    -0.59900
H1559       H  0.84726649  0.95901036  0.35423486     0.14600
H1560       H  0.94787806  0.01481220  0.35742324     0.46400
H1561       H  0.82846238  0.56304910  0.34119457     0.41800
H1562       H  0.81710887  0.93957538  0.29215702     0.45300
H1563       H  0.84477408  0.47038455  0.42662457     0.36700
C1564       C  0.52675598  0.62678087  0.09362361    -0.27500
C1565       C  0.50586650  0.63524256  0.12120013     0.02100
C1566       C  0.98402856  0.62058020  0.12353310     0.30200
C1567       C  0.98346617  0.59744676  0.09914824    -0.19300
C1568       C  0.50459664  0.58836503  0.07207718    -0.28700
C1569       C  0.52611501  0.60363612  0.06881981     0.44200
C1570       C  0.50659856  0.65939239  0.14766141     0.05400
O1571       O  0.96332032  0.62846600  0.15016656    -0.57200
H1572       H  0.96676411  0.58609525  0.10241871     0.18300
O1573       O  0.54660413  0.59613797  0.04173172    -0.63900
H1574       H  0.54348038  0.63821383  0.09125299     0.16800
C1575       C  0.52620473  0.65859168  0.17929454     0.29000
C1576       C  0.52546683  0.68121006  0.20540482    -0.24800
C1577       C  0.50495311  0.70457065  0.20081357    -0.24100
C1578       C  0.98518143  0.70516296  0.16935774     0.40500
C1579       C  0.98611517  0.68267665  0.14309142    -0.26600
O1580       O  0.54582324  0.63562599  0.18530947    -0.58500
H1581       H  0.54093569  0.68052555  0.22924477     0.16100
O1582       O  0.96411000  0.72712373  0.16533679    -0.59900
H1583       H  0.97058122  0.68324092  0.11934464     0.14600
H1584       H  0.53962618  0.60556251  0.01637656     0.46400
H1585       H  0.53736657  0.62386985  0.20353724     0.41800
H1586       H  0.96871480  0.73744859  0.14177656     0.45300
H1587       H  0.97038707  0.62006967  0.17617993     0.36700
C1588       C  0.47905569  0.66336756  0.30808452    -0.27500
C1589       C  0.50079938  0.65240680  0.33438388     0.02100
C1590       C  0.52374378  0.66569526  0.33855477     0.30200
C1591       C  0.52447960  0.68981679  0.31714219    -0.19300
C1592       C  0.50264091  0.70092636  0.29118838    -0.28700
C1593       C  0.47983387  0.68750008  0.28660408     0.44200
C1594       C  0.49951551  0.62689203  0.35685720     0.05400
O1595       O  0.54599090  0.65457049  0.36217826    -0.57200
H1596       H  0.54225454  0.69984557  0.32061540     0.18300
O1597       O  0.95774741  0.69852480  0.26264345    -0.63900
H1598       H  0.96124418  0.65339157  0.30466534     0.16800
C1599       C  0.50161003  0.62620610  0.39922577     0.29000
C1600       C  0.50154824  0.60152518  0.41961041    -0.24800
C1601       C  0.49877052  0.57727587  0.39838049    -0.24100
C1602       C  0.99574913  0.57833274  0.35589462     0.40500
C1603       C  0.99624778  0.60292576  0.33562203    -0.26600
O1604       O  0.50359881  0.64960013  0.42101387    -0.58500
H1605       H  0.50372292  0.60142134  0.45215345     0.16100
O1606       O  0.99322030  0.55528817  0.33358680    -0.59900
H1607       H  0.99451631  0.60316861  0.30302557     0.14600
H1608       H  0.95811267  0.68593917  0.23907685     0.46400
H1609       H  0.48435938  0.65853777  0.42564708     0.41800
H1610       H  0.97318397  0.55632041  0.32881779     0.45300
H1611       H  0.54623486  0.66741639  0.38534628     0.36700
C1612       C  0.53288415  0.83903874  0.19184730    -0.27500
C1613       C  0.00829633  0.85669177  0.18128502     0.02100
C1614       C  0.98306657  0.84769008  0.18683471     0.30200
C1615       C  0.98272755  0.82180986  0.20354950    -0.19300
C1616       C  0.50728102  0.80438904  0.21407092    -0.28700
C1617       C  0.53249345  0.81294238  0.20762424     0.44200
C1618       C  0.00936778  0.88296973  0.16039482     0.05400
O1619       O  0.95883662  0.86320055  0.17342150    -0.57200
H1620       H  0.96324089  0.81518643  0.20799185     0.18300
O1621       O  0.55683429  0.79606935  0.21711946    -0.63900
H1622       H  0.55248176  0.84538234  0.18724909     0.16800
C1623       C  0.99370258  0.90825471  0.17264677     0.29000
C1624       C  0.99250793  0.93176592  0.14869273    -0.24800
C1625       C  0.00685310  0.93043492  0.11252931    -0.24100
C1626       C  0.52457451  0.90570726  0.10263447     0.40500
C1627       C  0.52547162  0.88232189  0.12618270    -0.26600
O1628       O  0.97993540  0.91017450  0.20822212    -0.58500
H1629       H  0.97936722  0.95068418  0.15757156     0.16100
O1630       O  0.54030629  0.90369812  0.06895372    -0.59900
H1631       H  0.53805487  0.86323004  0.11666193     0.14600
H1632       H  0.56016082  0.78289733  0.19424859     0.46400
H1633       H  0.96024150  0.91619506  0.20094420     0.41800
H1634       H  0.55720670  0.91071896  0.07747395     0.45300
H1635       H  0.94825169  0.86893750  0.19796874     0.36700
C1636       C  0.52858001  0.87970149  0.38997126    -0.27500
C1637       C  0.51020514  0.87871403  0.35730294     0.02100
C1638       C  0.99247319  0.90300920  0.34550883     0.30200
C1639       C  0.99229191  0.92734953  0.36768380    -0.19300
C1640       C  0.50958630  0.92783669  0.40180234    -0.28700
C1641       C  0.52854573  0.90399718  0.41191512     0.44200
C1642       C  0.50896229  0.85195531  0.33722002     0.05400
O1643       O  0.97461752  0.90298808  0.31321333    -0.57200
H1644       H  0.97759484  0.94546791  0.35939308     0.18300
O1645       O  0.54640056  0.90385590  0.44425209    -0.63900
H1646       H  0.54232626  0.86126506  0.39957938     0.16800
C1647       C  0.53311273  0.83465604  0.32482443     0.29000
C1648       C  0.53165522  0.80901784  0.30758949    -0.24800
C1649       C  0.50625700  0.80068398  0.30096791    -0.24100
C1650       C  0.98207630  0.81771591  0.31334897     0.40500
C1651       C  0.98354932  0.84308684  0.33173396    -0.26600
O1652       O  0.55815831  0.84294635  0.32831834    -0.58500
H1653       H  0.55030629  0.79607421  0.29766091     0.16100
O1654       O  0.95689870  0.81032876  0.30591884    -0.59900
H1655       H  0.96480209  0.85590428  0.34157756     0.14600
H1656       H  0.56180698  0.91218098  0.43427273     0.46400
H1657       H  0.55985115  0.85309676  0.30318510     0.41800
H1658       H  0.95507447  0.79671302  0.32693359     0.45300
H1659       H  0.98574845  0.90458893  0.28924212     0.36700
O1660       O  0.01014221  0.94828169  0.96646797    -0.80000
O1661       O  0.54852554  0.49115710  0.53270301    -0.80100
O1662       O  0.53988559  0.99577493  0.94244902    -0.80100
O1663       O  0.48781900  0.97687513  0.59303399    -0.80000
O1664       O  0.55866459  0.52751146  0.97614375    -0.80100
O1665       O  0.00669073  0.94809106  0.54688342    -0.80000
O1666       O  0.52644773  0.00923803  0.58530428    -0.80000
O1667       O  0.49413472  0.97531973  0.91755907    -0.80100
C1668       C  0.50518720  0.95173557  0.92945174     1.09700
C1669       C  0.54831490  0.99586789  0.57008197     1.09500
C1670       C  0.55930833  0.50995679  0.94799876     1.09700
C1671       C  0.00088498  0.95327779  0.58312900     1.09600
O1672       O  0.94899667  0.97341258  0.54196718    -0.80000
O1673       O  0.50574953  0.54971012  0.95894942    -0.80100
O1674       O  0.95508863  0.51917360  0.94979903    -0.80000
O1675       O  0.98304018  0.55154872  0.54848417    -0.80000
O1676       O  0.52637021  0.54818559  0.53671772    -0.80100
O1677       O  0.95232073  0.97629952  0.96075152    -0.80000
O1678       O  0.94661874  0.51629239  0.55274717    -0.80000
O1679       O  0.99640100  0.52943136  0.90179593    -0.80100
Co1680     Co  0.98091598  0.96325505  0.00402185     1.51500
Co1681     Co  0.52626305  0.51781025  0.49610709     1.51700
Co1682     Co  0.49567555  0.50996768  0.95010357     1.51600
Co1683     Co  0.98682571  0.01363358  0.56541963     1.51500
O1684       O  0.99537082  0.99907751  0.00872074    -1.42000
C1685       C  0.93634038  0.99688134  0.55344176     1.09600
C1686       C  0.50039688  0.55096878  0.92043118     1.09700
C1687       C  0.94187110  0.49932125  0.94616147     1.09600
C1688       C  0.00455672  0.56196414  0.55030262     1.09600
C1689       C  0.50624789  0.77784088  0.73365906     0.02400
C1690       C  0.50507989  0.77614171  0.77579232     0.02400
C1691       C  0.50392624  0.75090171  0.79381660    -0.18200
C1692       C  0.50369625  0.72709470  0.77025320     0.02400
C1693       C  0.50474263  0.72880895  0.72772442     0.02400
C1694       C  0.50617484  0.75423644  0.71004188    -0.18200
H1695       H  0.50750926  0.75565435  0.67763330     0.04400
H1696       H  0.50323804  0.74978407  0.82635222     0.04400
C1697       C  0.77268380  0.49799951  0.76954772     0.02400
C1698       C  0.77190195  0.49315931  0.72750976     0.02400
C1699       C  0.74720915  0.48880341  0.70860794    -0.18200
C1700       C  0.72313788  0.48988859  0.73065638     0.02400
C1701       C  0.72395090  0.49535332  0.77251698     0.02400
C1702       C  0.74863242  0.49929707  0.79137091    -0.18200
H1703       H  0.74928256  0.50273680  0.82368017     0.04400
H1704       H  0.74652887  0.48541840  0.67630475     0.04400
C1705       C  0.59807793  0.98586294  0.65994371    -0.27500
C1706       C  0.62120953  0.48387454  0.64406330     0.02100
C1707       C  0.62249672  0.48268150  0.60179113     0.30200
C1708       C  0.59835322  0.48510443  0.57819987    -0.19300
C1709       C  0.57248445  0.48907803  0.59609123    -0.28700
C1710       C  0.57370684  0.98696192  0.63694607     0.44200
C1711       C  0.64649494  0.48425591  0.66894472     0.05400
O1712       O  0.64724671  0.48039285  0.58317281    -0.57200
H1713       H  0.59990859  0.48520463  0.54572257     0.18300
O1714       O  0.54973974  0.98543690  0.65600397    -0.63900
H1715       H  0.59756795  0.98387620  0.69235365     0.16800
C1716       C  0.64928860  0.50738627  0.69290371     0.29000
C1717       C  0.67441513  0.50902808  0.71223246    -0.24800
C1718       C  0.69687902  0.48745762  0.70921308    -0.24100
C1719       C  0.69616116  0.97022993  0.68158970     0.40500
C1720       C  0.67164144  0.96880870  0.66023375    -0.26600
O1721       O  0.62805115  0.52919626  0.69572930    -0.58500
H1722       H  0.67646500  0.52741515  0.72936662     0.16100
O1723       O  0.71856433  0.95002469  0.67589524    -0.59900
H1724       H  0.67092716  0.95204047  0.63907021     0.14600
H1725       H  0.54804703  0.96570777  0.65478885     0.46400
H1726       H  0.61968330  0.52702347  0.72205647     0.41800
H1727       H  0.71745186  0.93616327  0.69687587     0.45300
H1728       H  0.65024553  0.49957164  0.57967531     0.36700
C1729       C  0.60577820  0.49063343  0.85915303    -0.27500
C1730       C  0.63067021  0.49706996  0.87435728     0.02100
C1731       C  0.63453306  0.00186067  0.91631204     0.30200
C1732       C  0.61136382  0.00490972  0.94036397    -0.19300
C1733       C  0.58412602  0.50325710  0.92334020    -0.28700
C1734       C  0.58258596  0.49371848  0.88325450     0.44200
C1735       C  0.65416412  0.49644592  0.84736983     0.05400
O1736       O  0.65900682  0.00658764  0.93290768    -0.57200
H1737       H  0.61320826  0.01126935  0.97152135     0.18300
O1738       O  0.55825863  0.48857868  0.86668188    -0.63900
H1739       H  0.60398738  0.48430515  0.82798349     0.16800
C1740       C  0.66630593  0.97143150  0.82488878     0.29000
C1741       C  0.68883063  0.97191019  0.80026634    -0.24800
C1742       C  0.69955406  0.49608263  0.79769469    -0.24100
C1743       C  0.68837536  0.52017244  0.81873628     0.40500
C1744       C  0.66579951  0.52025343  0.84325607    -0.26600
O1745       O  0.65551015  0.94773435  0.82744847    -0.58300
H1746       H  0.69718175  0.95368247  0.78313391     0.16100
O1747       O  0.69950573  0.54364958  0.81561976    -0.59900
H1748       H  0.65732850  0.53898866  0.85916107     0.14600
H1749       H  0.54900501  0.50640250  0.85539778     0.46400
H1750       H  0.64380216  0.94735322  0.80281351     0.41800
H1751       H  0.68733042  0.55538529  0.79617792     0.45300
H1752       H  0.66892761  0.98824167  0.94130364     0.36700
C1753       C  0.82646244  0.51874092  0.66723431    -0.27500
C1754       C  0.84038408  0.00022077  0.65044104     0.02100
C1755       C  0.84211178  0.97976429  0.68004560     0.30200
C1756       C  0.82019593  0.97953690  0.70591186    -0.19300
C1757       C  0.79609735  0.49363889  0.70230356    -0.28700
C1758       C  0.80438289  0.51863390  0.69285906     0.44200
C1759       C  0.86309161  0.00034917  0.62213592     0.05400
O1760       O  0.86562589  0.96060907  0.68486256    -0.57200
H1761       H  0.82149455  0.96316433  0.72759743     0.18300
O1762       O  0.79029889  0.54309736  0.70723719    -0.63900
H1763       H  0.83245645  0.53816293  0.65988084     0.16800
C1764       C  0.87229275  0.97748583  0.59718979     0.29000
C1765       C  0.89535682  0.97717092  0.57333566    -0.24800
C1766       C  0.90960187  0.99944952  0.57389725    -0.24100
C1767       C  0.90962152  0.50699356  0.61661703     0.40500
C1768       C  0.88657233  0.50645861  0.63992933    -0.26600
O1769       O  0.85845993  0.95564232  0.59540818    -0.58500
H1770       H  0.90246741  0.95911504  0.55509007     0.16100
O1771       O  0.93158709  0.51701595  0.63344443    -0.59900
H1772       H  0.88620817  0.51470986  0.67034893     0.14600
H1773       H  0.80226443  0.54888350  0.72896775     0.46400
H1774       H  0.87169146  0.93957094  0.60545045     0.41800
H1775       H  0.92719316  0.53722460  0.62980063     0.45300
H1776       H  0.86030706  0.94261724  0.67790686     0.36700
C1777       C  0.89146996  0.01697207  0.86071759    -0.27500
C1778       C  0.86729947  0.50332184  0.87387660     0.02100
C1779       C  0.87483290  0.48267618  0.90300102     0.30200
C1780       C  0.89856599  0.48230905  0.92702902    -0.19300
C1781       C  0.91521586  0.50251069  0.92319743    -0.28700
C1782       C  0.91465666  0.01746635  0.88573408     0.44200
C1783       C  0.84348858  0.50270889  0.84562170     0.05400
O1784       O  0.85933374  0.46248364  0.90794931    -0.57200
H1785       H  0.90412609  0.46583012  0.94852330     0.18300
O1786       O  0.93551392  0.02980378  0.87227410    -0.63900
H1787       H  0.89083382  0.02597503  0.83107785     0.16800
C1788       C  0.82295480  0.52607048  0.83961388     0.29000
C1789       C  0.80052699  0.52459832  0.81342496    -0.24800
C1790       C  0.79835413  0.50017873  0.79244728    -0.24100
C1791       C  0.81393334  0.97547142  0.81414300     0.40500
C1792       C  0.83686613  0.97730984  0.83903434    -0.26600
O1793       O  0.82379530  0.54989244  0.86098907    -0.58500
H1794       H  0.78440733  0.54240272  0.81016044     0.16100
O1795       O  0.80466389  0.95088060  0.81052348    -0.59900
H1796       H  0.84741613  0.95893297  0.85392039     0.14600
H1797       H  0.94777183  0.01516826  0.85753251     0.46400
H1798       H  0.82846905  0.56310615  0.84114908     0.41800
H1799       H  0.81769039  0.93935507  0.79245058     0.45300
H1800       H  0.84470031  0.47050422  0.92664832     0.36700
C1801       C  0.52671007  0.62682054  0.59355292    -0.27500
C1802       C  0.50584453  0.63525666  0.62117519     0.02100
C1803       C  0.98404558  0.62055387  0.62357841     0.30200
C1804       C  0.98348485  0.59741653  0.59920297    -0.19300
C1805       C  0.50458440  0.58836718  0.57208170    -0.28700
C1806       C  0.52607537  0.60366662  0.56876699     0.44200
C1807       C  0.50657375  0.65940949  0.64762613     0.05400
O1808       O  0.96337287  0.62840473  0.65028030    -0.57200
H1809       H  0.96680895  0.58603741  0.60252554     0.18300
O1810       O  0.54654452  0.59618556  0.54164247    -0.63900
H1811       H  0.54341229  0.63827792  0.59113699     0.16800
C1812       C  0.52619051  0.65861675  0.67924205     0.29000
C1813       C  0.52544803  0.68123283  0.70535563    -0.24800
C1814       C  0.50491639  0.70458067  0.70078856    -0.24100
C1815       C  0.98512977  0.70515980  0.66934911     0.40500
C1816       C  0.98607237  0.68267678  0.64307490    -0.26600
O1817       O  0.54582187  0.63565906  0.68524033    -0.58500
H1818       H  0.54092659  0.68055619  0.72918033     0.16100
O1819       O  0.96403693  0.72710324  0.66536033    -0.59900
H1820       H  0.97052696  0.68322906  0.61934673     0.14600
H1821       H  0.53955803  0.60564390  0.51631611     0.46400
H1822       H  0.53736711  0.62388056  0.70343541     0.41800
H1823       H  0.96861993  0.73744562  0.64180480     0.45300
H1824       H  0.97048641  0.62000225  0.67626919     0.36700
C1825       C  0.47906588  0.66336940  0.80810013    -0.27500
C1826       C  0.50083011  0.65239634  0.83435780     0.02100
C1827       C  0.52378235  0.66567728  0.83848739     0.30200
C1828       C  0.52450553  0.68980277  0.81707583    -0.19300
C1829       C  0.50264617  0.70092378  0.79116442    -0.28700
C1830       C  0.47983114  0.68750579  0.78662259     0.44200
C1831       C  0.49955366  0.62688134  0.85683822     0.05400
O1832       O  0.54604735  0.65454196  0.86206927    -0.57200
H1833       H  0.54228614  0.69982595  0.82051715     0.18300
O1834       O  0.95772025  0.69854631  0.76271399    -0.63900
H1835       H  0.96124255  0.65340571  0.80472242     0.16800
C1836       C  0.50169526  0.62618731  0.89920380     0.29000
C1837       C  0.50162677  0.60150889  0.91959285    -0.24800
C1838       C  0.49879501  0.57727026  0.89837257    -0.24100
C1839       C  0.99571984  0.57833828  0.85589575     0.40500
C1840       C  0.99622635  0.60292726  0.83561582    -0.26600
O1841       O  0.50373390  0.64957176  0.92098585    -0.58500
H1842       H  0.50383822  0.60139876  0.95213181     0.16100
O1843       O  0.99312394  0.55530680  0.83359885    -0.59900
H1844       H  0.99445031  0.60317626  0.80302295     0.14600
H1845       H  0.95806908  0.68598048  0.73912669     0.46400
H1846       H  0.48450639  0.65854165  0.92563294     0.41800
H1847       H  0.97308032  0.55638976  0.82884377     0.45300
H1848       H  0.54632866  0.66739387  0.88522256     0.36700
C1849       C  0.53289267  0.83901497  0.69180765    -0.27500
C1850       C  0.00830945  0.85670616  0.68131600     0.02100
C1851       C  0.98306737  0.84773985  0.68691262     0.30200
C1852       C  0.98270946  0.82185465  0.70359868    -0.19300
C1853       C  0.50725827  0.80439694  0.71405392    -0.28700
C1854       C  0.53248119  0.81291824  0.70756711     0.44200
C1855       C  0.00939624  0.88298362  0.66043691     0.05400
O1856       O  0.95883921  0.86329331  0.67357780    -0.57200
H1857       H  0.96321412  0.81525835  0.70807857     0.18300
O1858       O  0.55681296  0.79601659  0.71701947    -0.63900
H1859       H  0.55249855  0.84533227  0.68717524     0.16800
C1860       C  0.99377309  0.90827939  0.67273075     0.29000
C1861       C  0.99256539  0.93178805  0.64876780    -0.24800
C1862       C  0.00686255  0.93044391  0.61256057    -0.24100
C1863       C  0.52456805  0.90570499  0.60262977     0.40500
C1864       C  0.52547119  0.88232152  0.62618233    -0.26600
O1865       O  0.98006227  0.91021149  0.70835497    -0.58500
H1866       H  0.97945245  0.95071536  0.65767802     0.16100
O1867       O  0.54026633  0.90368487  0.56891371    -0.59900
H1868       H  0.53802827  0.86322200  0.61663436     0.14600
H1869       H  0.56011014  0.78285228  0.69413537     0.46400
H1870       H  0.96036130  0.91625766  0.70114467     0.41800
H1871       H  0.55718477  0.91068567  0.57739756     0.45300
H1872       H  0.94829808  0.86903907  0.69816116     0.36700
C1873       C  0.52861530  0.87969293  0.88995304    -0.27500
C1874       C  0.51021909  0.87869380  0.85731449     0.02100
C1875       C  0.99247251  0.90297627  0.84553023     0.30200
C1876       C  0.99229371  0.92732075  0.86769045    -0.19300
C1877       C  0.50960445  0.92782372  0.90179004    -0.28700
C1878       C  0.52858111  0.90399295  0.91188793     0.44200
C1879       C  0.50897382  0.85193437  0.83723953     0.05400
O1880       O  0.97459452  0.90294139  0.81326491    -0.57200
H1881       H  0.97758139  0.94543108  0.85941339     0.18300
O1882       O  0.54645295  0.90386443  0.94420192    -0.63900
H1883       H  0.54237772  0.86126271  0.89954528     0.16800
C1884       C  0.53311748  0.83465344  0.82478247     0.29000
C1885       C  0.53165530  0.80902225  0.80752755    -0.24800
C1886       C  0.50625725  0.80067936  0.80094989    -0.24100
C1887       C  0.98208694  0.81769082  0.81339048     0.40500
C1888       C  0.98356771  0.84305229  0.83179702    -0.26600
O1889       O  0.55815853  0.84295673  0.82823378    -0.58500
H1890       H  0.55030053  0.79609165  0.79755223     0.16100
O1891       O  0.95690755  0.81029846  0.80599812    -0.59900
H1892       H  0.96482669  0.85585775  0.84168734     0.14600
H1893       H  0.56184194  0.91220764  0.93420275     0.46400
H1894       H  0.55985440  0.85305583  0.80305416     0.41800
H1895       H  0.95510006  0.79668201  0.82701964     0.45300
H1896       H  0.98571267  0.90451375  0.78927090     0.36700
loop_ 
_geom_bond_atom_site_label_1 
_geom_bond_atom_site_label_2 
_geom_bond_distance 
_geom_bond_site_symmetry_2 
_ccdc_geom_bond_type 
O1          Co21   1.968       .  S
O1          C957   1.254       .  A
O2          Co22   1.964   1_564  S
O2          C484   1.266       .  A
O3         Co497   2.112   1_455  S
O3          C485   1.296       .  A
O4         Co972   2.039       .  S
O4          C960   1.274   1_655  A
O5         Co259   1.889       .  S
O5           C11   1.264       .  A
O6         Co258   1.952       .  S
O6           C12   1.256       .  A
O7         Co972   2.021   1_455  S
O7           C10   1.276       .  A
O8         Co497   2.012       .  S
O8            C9   1.263   1_655  A
C9          O949   1.254       .  A
C9          C218   1.477       .  S
C10         O476   1.269       .  A
C10         C524   1.486       .  S
C11         O477   1.296   1_545  A
C11          C74   1.479       .  S
C12         O952   1.274       .  A
C12         C203   1.492       .  S
O13        Co258   2.034       .  S
O13          C26   1.276       .  A
O14        Co259   2.107       .  S
O14          C27   1.298       .  A
O15        Co971   1.972       .  S
O15          C28   1.270       .  A
O16        Co498   1.972       .  S
O16          C29   1.256       .  A
O17         Co22   2.011   1_554  S
O17         C977   1.262       .  A
O18         Co21   2.023       .  S
O18         C502   1.278       .  A
O19        Co498   1.953       .  S
O19         C500   1.258   1_545  A
O20        Co971   1.888       .  S
O20         C975   1.265       .  A
Co21        O243   1.952       .  S
Co21        O250   2.034       .  S
Co21         O25   2.019       .  S
Co22        O242   1.889       .  S
Co22        O251   2.107       .  S
Co22       O1684   2.005   1_446  S
Co23        O477   2.109   1_645  S
Co23        O482   2.005   1_545  S
Co23        O963   1.972       .  S
Co23        O968   1.888       .  S
Co23       O1447   2.014   1_545  S
Co24        O952   2.039       .  S
Co24        O955   2.021       .  S
Co24        O490   1.975       .  S
Co24        O493   1.955       .  S
Co24        O262   2.043       .  S
O25       Co1681   2.007       .  S
O25       Co1445   2.018       .  S
O25        Co261   2.043       .  S
C26         O493   1.260       .  A
C26         C107   1.476       .  S
C27         O968   1.265   1_455  A
C27         C179   1.485       .  S
C28         O492   1.278   1_545  A
C28         C122   1.478       .  S
C29         O965   1.262       .  A
C29        C1094   1.485       .  S
C30         C194   1.480       .  S
C30          C31   1.407       .  A
C30          C35   1.398       .  A
C31         C227   1.473       .  S
C31          C32   1.401       .  A
C32          C33   1.406       .  A
C32          H37   1.084       .  S
C33         C170   1.483       .  S
C33          C34   1.418       .  A
C34         C155   1.482       .  S
C34          C35   1.405       .  A
C35          H36   1.084       .  S
C38         C131   1.482       .  S
C38          C39   1.415       .  A
C38          C43   1.402       .  A
C39          C98   1.486       .  S
C39          C40   1.407       .  A
C40          C41   1.405       .  A
C40          H45   1.084       .  S
C41          C59   1.488       .  S
C41          C42   1.413       .  A
C42          C83   1.481       .  S
C42          C43   1.402       .  A
C43          H44   1.085       .  S
C46          C51   1.403       .  A
C46         C521   1.404       .  A
C46          H56   1.084       .  S
C47          C52   1.482       .  S
C47          C48   1.407       .  A
C47         C520   1.405       .  A
C48          C49   1.397       .  A
C48          O53   1.372       .  S
C49          C50   1.405       .  A
C49          H54   1.084       .  S
C50         C484   1.480       .  S
C50         C525   1.411       .  A
C51         C524   1.414       .  A
C51          O55   1.372       .  S
C52          C57   1.408   1_565  A
C52         C535   1.403       .  A
O53          H69   0.992   1_565  S
O55          H66   0.992       .  S
C57          C58   1.400       .  A
C57          O62   1.372       .  S
C58          C59   1.404   1_545  A
C58          H63   1.082       .  S
C59         C534   1.409       .  A
C60          C61   1.403       .  A
C60         C533   1.409       .  A
C60          O64   1.371       .  S
C61         C526   1.405       .  A
C61          H65   1.084       .  S
O62          H67   0.992       .  S
O64          H68   0.992       .  S
C70          C71   1.403       .  A
C70          C75   1.400       .  A
C70          H80   1.083       .  S
C71          C76   1.483       .  S
C71         C546   1.409   1_565  A
C72          C73   1.398       .  A
C72         C545   1.408       .  A
C72          O77   1.372       .  S
C73         C548   1.406       .  A
C73          H78   1.084       .  S
C74          C75   1.410   1_545  A
C74         C547   1.405       .  A
C75          O79   1.372       .  S
C76          C85   1.404   1_565  A
C76         C555   1.409       .  A
O77          H93   0.992       .  S
O79          H90   0.992   1_565  S
C81          C82   1.400       .  A
C81         C550   1.408       .  A
C81          O86   1.371       .  S
C82         C557   1.403       .  A
C82          H87   1.084       .  S
C83          C84   1.407   1_565  A
C83         C556   1.403       .  A
C84          C85   1.398       .  A
C84          O88   1.372       .  S
C85          H89   1.084       .  S
O86          H91   0.992       .  S
O88          H92   0.992       .  S
C94          C99   1.401       .  A
C94         C569   1.404       .  A
C94         H104   1.084       .  S
C95         C100   1.486       .  S
C95          C96   1.409       .  A
C95         C568   1.405       .  A
C96          C97   1.403       .  A
C96         O101   1.372       .  S
C97         C572   1.401       .  A
C97         H102   1.084       .  S
C98          C99   1.410   1_565  A
C98         C571   1.402       .  A
C99         O103   1.372       .  S
C100        C105   1.412       .  A
C100        C583   1.402       .  A
O101        H117   0.992       .  S
O103        H114   0.992       .  S
C105        C106   1.407       .  A
C105        O110   1.372       .  S
C106        C107   1.402       .  A
C106        H111   1.084       .  S
C107        C582   1.411       .  A
C108        C109   1.399       .  A
C108        C581   1.418   1_545  A
C108        O112   1.372       .  S
C109        C574   1.400       .  A
C109        H113   1.084       .  S
O110        H115   0.992       .  S
O112        H116   0.992       .  S
C118        C123   1.404       .  A
C118        C593   1.405       .  A
C118        H128   1.083       .  S
C119        C124   1.493       .  S
C119        C120   1.413   1_545  A
C119        C592   1.406       .  A
C120        C121   1.401       .  A
C120        O125   1.371       .  S
C121        C122   1.403   1_565  A
C121        H126   1.084       .  S
C122        C597   1.409       .  A
C123        C596   1.414       .  A
C123        O127   1.371       .  S
C124        C129   1.413       .  A
C124        C607   1.407   1_545  A
O125        H141   0.992       .  S
O127        H138   0.992       .  S
C129        C130   1.404       .  A
C129        O134   1.372       .  S
C130        C131   1.401   1_545  A
C130        H135   1.084       .  S
C131        C606   1.406       .  A
C132        C133   1.402       .  A
C132        C605   1.406       .  A
C132        O136   1.372       .  S
C133        C598   1.406       .  A
C133        H137   1.083       .  S
O134        H139   0.992       .  S
O136        H140   0.992       .  S
C142        C143   1.405       .  A
C142        C147   1.405       .  A
C142        H152   1.083       .  S
C143        C148   1.482       .  S
C143       C1092   1.406   1_455  A
C144        C145   1.395       .  A
C144       C1091   1.406       .  A
C144        O149   1.372       .  S
C145       C1094   1.407       .  A
C145        H150   1.083       .  S
C146        C977   1.485       .  S
C146        C147   1.412       .  A
C146       C1093   1.407   1_455  A
C147        O151   1.371       .  S
C148        C153   1.410       .  A
C148       C1105   1.402   1_455  A
O149        H165   0.992       .  S
O151        H162   0.992       .  S
C153        C154   1.403       .  A
C153        O158   1.371       .  S
C154        C155   1.404       .  A
C154        H159   1.083       .  S
C155       C1104   1.407   1_455  A
C156        C157   1.397       .  A
C156       C1103   1.407       .  A
C156        O160   1.372       .  S
C157       C1096   1.402       .  A
C157        H161   1.084       .  S
O158        H163   0.992       .  S
O160        H164   0.992       .  S
C166        C167   1.404   1_655  A
C166        C171   1.403       .  A
C166       H1124   1.084       .  S
C167        C172   1.482   1_455  S
C167        C168   1.408       .  A
C168        C169   1.401       .  A
C168        O173   1.373       .  S
C169        C170   1.403       .  A
C169        H174   1.084       .  S
C170        C171   1.407   1_455  A
C171       O1123   1.372       .  S
C172        C177   1.408   1_655  A
C172       C1129   1.401       .  A
O173        H189   0.992       .  S
O175       C1119   1.372       .  S
O175        H186   0.992       .  S
H176       C1114   1.084       .  S
C177        C178   1.400       .  A
C177        O182   1.371       .  S
C178        C179   1.406       .  A
C178        H183   1.084       .  S
C179       C1128   1.415   1_455  A
C180        C181   1.400       .  A
C180       C1127   1.415       .  A
C180        O184   1.372       .  S
C181       C1120   1.401       .  A
C181        H185   1.084       .  S
O182        H187   0.992   1_455  S
O184        H188   0.992       .  S
C190        C195   1.401       .  A
C190       C1139   1.407       .  A
C190        H200   1.083       .  S
C191        C196   1.488       .  S
C191        C192   1.411       .  A
C191       C1138   1.407       .  A
C192        C193   1.402       .  A
C192        O197   1.372       .  S
C193       C1142   1.401       .  A
C193        H198   1.084       .  S
C194        C195   1.405       .  A
C194       C1141   1.401   1_455  A
C195        O199   1.372       .  S
C196        C201   1.410       .  A
C196       C1153   1.400       .  A
O197        H213   0.992       .  S
O199        H210   0.992       .  S
C201        C202   1.408       .  A
C201        O206   1.373       .  S
C202        C203   1.407       .  A
C202        H207   1.083       .  S
C203       C1152   1.417       .  A
C204        C205   1.397       .  A
C204       C1151   1.417       .  A
C204        O208   1.372       .  S
C205       C1144   1.400       .  A
C205        H209   1.084       .  S
O206        H211   0.992       .  S
O208        H212   0.992       .  S
C214        C215   1.403       .  A
C214        C219   1.396       .  A
C214        H224   1.084       .  S
C215        C220   1.483       .  S
C215       C1164   1.411   1_455  A
C216        C217   1.400       .  A
C216       C1163   1.411       .  A
C216        O221   1.372       .  S
C217       C1166   1.404       .  A
C217        H222   1.084       .  S
C218        C219   1.411       .  A
C218       C1165   1.404   1_455  A
C219        O223   1.372       .  S
C220        C225   1.409       .  A
C220       C1177   1.407   1_455  A
O221        H237   0.991       .  S
O223        H234   0.992       .  S
C225        C226   1.394       .  A
C225        O230   1.371       .  S
C226        C227   1.399       .  A
C226        H231   1.083       .  S
C227       C1176   1.405   1_455  A
C228        C229   1.401       .  A
C228       C1175   1.405       .  A
C228        O232   1.372       .  S
C229       C1168   1.407       .  A
C229        H233   1.083       .  S
O230        H235   0.992       .  S
O232        H236   0.991       .  S
O238       Co258   1.968   1_556  S
O238       C1194   1.254       .  A
O239       Co259   1.964   1_565  S
O239        C721   1.266       .  A
O240       Co734   2.112   1_455  S
O240        C722   1.296       .  A
O241      Co1209   2.039       .  S
O241       C1197   1.274   1_655  A
O242        C248   1.264       .  A
O243        C249   1.256       .  A
O244      Co1209   2.021   1_455  S
O244        C247   1.276       .  A
O245       Co734   2.012       .  S
O245        C246   1.263   1_655  A
C246       O1186   1.254       .  A
C246        C455   1.477       .  S
C247        O713   1.268       .  A
C247        C761   1.486       .  S
C248        O714   1.296   1_545  A
C248        C311   1.479       .  S
C249       O1189   1.274       .  A
C249        C440   1.492       .  S
O250        C263   1.276       .  A
O251        C264   1.298       .  A
O252      Co1208   1.972       .  S
O252        C265   1.270       .  A
O253       Co735   1.971       .  S
O253        C266   1.256       .  A
O254       Co259   2.011       .  S
O254       C1214   1.263       .  A
O255       Co258   2.023   1_556  S
O255        C739   1.278       .  A
O256       Co735   1.953       .  S
O256        C737   1.258   1_545  A
O257      Co1208   1.888       .  S
O257       C1212   1.265       .  A
Co258       O262   2.019       .  S
Co259      O1447   2.006   1_445  S
Co260       O714   2.109   1_645  S
Co260       O719   2.005   1_545  S
Co260      O1200   1.972       .  S
Co260      O1205   1.888       .  S
Co260      O1684   2.014   1_546  S
Co261      O1189   2.039       .  S
Co261      O1192   2.021       .  S
Co261       O727   1.975       .  S
Co261       O730   1.955       .  S
O262      Co1444   2.007   1_554  S
O262      Co1682   2.018   1_554  S
C263        O730   1.260       .  A
C263        C344   1.476       .  S
C264       O1205   1.265   1_455  A
C264        C416   1.485       .  S
C265        O729   1.278   1_545  A
C265        C359   1.478       .  S
C266       O1202   1.263       .  A
C266       C1331   1.485       .  S
C267        C431   1.480       .  S
C267        C268   1.407       .  A
C267        C272   1.397       .  A
C268        C464   1.473       .  S
C268        C269   1.401       .  A
C269        C270   1.406       .  A
C269        H274   1.084       .  S
C270        C407   1.483       .  S
C270        C271   1.418       .  A
C271        C392   1.482       .  S
C271        C272   1.405       .  A
C272        H273   1.084       .  S
C275        C368   1.482       .  S
C275        C276   1.415       .  A
C275        C280   1.402       .  A
C276        C335   1.486       .  S
C276        C277   1.407       .  A
C277        C278   1.405       .  A
C277        H282   1.084       .  S
C278        C296   1.488       .  S
C278        C279   1.413       .  A
C279        C320   1.480       .  S
C279        C280   1.402       .  A
C280        H281   1.085       .  S
C283        C758   1.404       .  A
C283        C288   1.403       .  A
C283        H293   1.084       .  S
C284        C289   1.482       .  S
C284        C757   1.405       .  A
C284        C285   1.407       .  A
C285        C286   1.397       .  A
C285        O290   1.372       .  S
C286        C287   1.405       .  A
C286        H291   1.084       .  S
C287        C721   1.480       .  S
C287        C762   1.411       .  A
C288        C761   1.414       .  A
C288        O292   1.372       .  S
C289        C294   1.408   1_565  A
C289        C772   1.403       .  A
O290        H306   0.992   1_565  S
O292        H303   0.992       .  S
C294        C295   1.400       .  A
C294        O299   1.372       .  S
C295        C296   1.404   1_545  A
C295        H300   1.082       .  S
C296        C771   1.409       .  A
C297        C770   1.409       .  A
C297        C298   1.403       .  A
C297        O301   1.371       .  S
C298        C763   1.405       .  A
C298        H302   1.084       .  S
O299        H304   0.992       .  S
O301        H305   0.992       .  S
C307        C308   1.403       .  A
C307        C312   1.400       .  A
C307        H317   1.083       .  S
C308        C313   1.483       .  S
C308        C783   1.409   1_565  A
C309        C782   1.408       .  A
C309        C310   1.398       .  A
C309        O314   1.372       .  S
C310        C785   1.406       .  A
C310        H315   1.084       .  S
C311        C784   1.405       .  A
C311        C312   1.410   1_545  A
C312        O316   1.372       .  S
C313        C792   1.409       .  A
C313        C322   1.404   1_565  A
O314        H330   0.992       .  S
O316        H327   0.992   1_565  S
C318        C787   1.408       .  A
C318        C319   1.400       .  A
C318        O323   1.371       .  S
C319        C794   1.403       .  A
C319        H324   1.084       .  S
C320        C793   1.403       .  A
C320        C321   1.406   1_565  A
C321        C322   1.398       .  A
C321        O325   1.372       .  S
C322        H326   1.084       .  S
O323        H328   0.992       .  S
O325        H329   0.992       .  S
C331        C806   1.404       .  A
C331        C336   1.401       .  A
C331        H341   1.084       .  S
C332        C337   1.486       .  S
C332        C805   1.405       .  A
C332        C333   1.409       .  A
C333        C334   1.403       .  A
C333        O338   1.372       .  S
C334        C809   1.401       .  A
C334        H339   1.084       .  S
C335        C808   1.402       .  A
C335        C336   1.410   1_565  A
C336        O340   1.372       .  S
C337        C342   1.412       .  A
C337        C820   1.402       .  A
O338        H354   0.992       .  S
O340        H351   0.992       .  S
C342        C343   1.407       .  A
C342        O347   1.372       .  S
C343        C344   1.402       .  A
C343        H348   1.084       .  S
C344        C819   1.411       .  A
C345        C818   1.418   1_545  A
C345        C346   1.399       .  A
C345        O349   1.372       .  S
C346        C811   1.400       .  A
C346        H350   1.084       .  S
O347        H352   0.992       .  S
O349        H353   0.992       .  S
C355        C830   1.405       .  A
C355        C360   1.404       .  A
C355        H365   1.083       .  S
C356        C361   1.493       .  S
C356        C829   1.406       .  A
C356        C357   1.413   1_545  A
C357        C358   1.401       .  A
C357        O362   1.371       .  S
C358        C359   1.403   1_565  A
C358        H363   1.084       .  S
C359        C834   1.409       .  A
C360        C833   1.414       .  A
C360        O364   1.371       .  S
C361        C366   1.413       .  A
C361        C844   1.407   1_545  A
O362        H378   0.992       .  S
O364        H375   0.992       .  S
C366        C367   1.404       .  A
C366        O371   1.372       .  S
C367        C368   1.401   1_545  A
C367        H372   1.084       .  S
C368        C843   1.406       .  A
C369        C842   1.406       .  A
C369        C370   1.402       .  A
C369        O373   1.372       .  S
C370        C835   1.406       .  A
C370        H374   1.083       .  S
O371        H376   0.992       .  S
O373        H377   0.992       .  S
C379        C380   1.405       .  A
C379        C384   1.405       .  A
C379        H389   1.083       .  S
C380        C385   1.482       .  S
C380       C1329   1.406   1_455  A
C381       C1328   1.406       .  A
C381        C382   1.396       .  A
C381        O386   1.372       .  S
C382       C1331   1.407       .  A
C382        H387   1.083       .  S
C383       C1214   1.485       .  S
C383       C1330   1.407   1_455  A
C383        C384   1.412       .  A
C384        O388   1.371       .  S
C385        C390   1.409       .  A
C385       C1342   1.402   1_455  A
O386        H402   0.992       .  S
O388        H399   0.992       .  S
C390        C391   1.403       .  A
C390        O395   1.371       .  S
C391        C392   1.404       .  A
C391        H396   1.083       .  S
C392       C1341   1.407   1_455  A
C393       C1340   1.407       .  A
C393        C394   1.397       .  A
C393        O397   1.372       .  S
C394       C1333   1.402       .  A
C394        H398   1.084       .  S
O395        H400   0.992       .  S
O397        H401   0.992       .  S
C403        C404   1.404   1_655  A
C403        C408   1.403       .  A
C403       H1361   1.084       .  S
C404        C409   1.482   1_455  S
C404        C405   1.408       .  A
C405        C406   1.401       .  A
C405        O410   1.373       .  S
C406        C407   1.403       .  A
C406        H411   1.084       .  S
C407        C408   1.408   1_455  A
C408       O1360   1.372       .  S
C409        C414   1.408   1_655  A
C409       C1366   1.401       .  A
O410        H426   0.992       .  S
O412       C1356   1.372       .  S
O412        H423   0.992       .  S
H413       C1351   1.084       .  S
C414        C415   1.400       .  A
C414        O419   1.371       .  S
C415        C416   1.406       .  A
C415        H420   1.084       .  S
C416       C1365   1.415   1_455  A
C417       C1364   1.415       .  A
C417        C418   1.400       .  A
C417        O421   1.372       .  S
C418       C1357   1.401       .  A
C418        H422   1.084       .  S
O419        H424   0.992   1_455  S
O421        H425   0.992       .  S
C427       C1376   1.407       .  A
C427        C432   1.401       .  A
C427        H437   1.083       .  S
C428        C433   1.488       .  S
C428       C1375   1.407       .  A
C428        C429   1.411       .  A
C429        C430   1.402       .  A
C429        O434   1.372       .  S
C430       C1379   1.401       .  A
C430        H435   1.084       .  S
C431       C1378   1.401   1_455  A
C431        C432   1.405       .  A
C432        O436   1.372       .  S
C433        C438   1.410       .  A
C433       C1390   1.400       .  A
O434        H450   0.992       .  S
O436        H447   0.992       .  S
C438        C439   1.408       .  A
C438        O443   1.373       .  S
C439        C440   1.407       .  A
C439        H444   1.083       .  S
C440       C1389   1.417       .  A
C441       C1388   1.417       .  A
C441        C442   1.397       .  A
C441        O445   1.372       .  S
C442       C1381   1.400       .  A
C442        H446   1.084       .  S
O443        H448   0.992       .  S
O445        H449   0.992       .  S
C451        C452   1.403       .  A
C451        C456   1.396       .  A
C451        H461   1.084       .  S
C452        C457   1.483       .  S
C452       C1401   1.411   1_455  A
C453       C1400   1.411       .  A
C453        C454   1.400       .  A
C453        O458   1.372       .  S
C454       C1403   1.404       .  A
C454        H459   1.084       .  S
C455       C1402   1.404   1_455  A
C455        C456   1.411       .  A
C456        O460   1.372       .  S
C457        C462   1.409       .  A
C457       C1414   1.407   1_455  A
O458        H474   0.991       .  S
O460        H471   0.992       .  S
C462        C463   1.394       .  A
C462        O467   1.371       .  S
C463        C464   1.399       .  A
C463        H468   1.083       .  S
C464       C1413   1.405   1_455  A
C465       C1412   1.405       .  A
C465        C466   1.401       .  A
C465        O469   1.372       .  S
C466       C1405   1.407       .  A
C466        H470   1.083       .  S
O467        H472   0.992       .  S
O469        H473   0.991       .  S
O475       Co495   1.972       .  S
O475       C1431   1.256       .  A
O476       Co496   1.972   1_554  S
O478      Co1446   2.036   1_565  S
O478       C1434   1.274   1_655  A
O479       Co733   1.888       .  S
O479        C485   1.264       .  A
O480       Co732   1.953       .  S
O480        C486   1.258       .  A
O481      Co1446   2.027   1_455  S
O481        C484   1.278   1_545  A
O482        C483   1.261   1_655  A
C483       O1423   1.256       .  A
C483        C692   1.476       .  S
C485        C548   1.480       .  S
C486       O1426   1.274       .  A
C486        C677   1.487       .  S
O487       Co732   2.033       .  S
O487        C500   1.276       .  A
O488       Co733   2.113       .  S
O488        C501   1.300       .  A
O489      Co1445   1.979       .  S
O489        C502   1.271       .  A
O490        C503   1.259       .  A
O491       Co496   2.004   1_554  S
O491       C1451   1.262       .  A
O492       Co495   2.020       .  S
O494      Co1445   1.885       .  S
O494       C1449   1.266       .  A
Co495       O717   1.953       .  S
Co495       O724   2.033       .  S
Co495       O499   2.021       .  S
Co496       O716   1.888       .  S
Co496       O725   2.113       .  S
Co496      O1210   2.007   1_456  S
Co497      O1437   1.979       .  S
Co497      O1442   1.885       .  S
Co497       O973   2.018       .  S
Co498      O1426   2.036   1_545  S
Co498      O1429   2.027       .  S
Co498       O736   2.034   1_545  S
O499      Co1207   2.006   1_565  S
O499       Co971   2.014   1_565  S
O499       Co735   2.034   1_565  S
C500        C581   1.487       .  S
C501       O1442   1.266   1_455  A
C501        C653   1.488   1_455  S
C502        C596   1.491       .  S
C503       O1439   1.262       .  A
C503       C1568   1.482       .  S
C504        C668   1.480       .  S
C504        C505   1.406       .  A
C504        C509   1.397       .  A
C505        C701   1.471       .  S
C505        C506   1.400       .  A
C506        C507   1.405       .  A
C506        H511   1.084       .  S
C507        C644   1.484       .  S
C507        C508   1.419       .  A
C508        C629   1.483       .  S
C508        C509   1.406       .  A
C509        H510   1.084       .  S
C512        C605   1.482       .  S
C512        C513   1.414       .  A
C512        C517   1.400       .  A
C513        C572   1.481       .  S
C513        C514   1.407       .  A
C514        C515   1.406       .  A
C514        H519   1.084       .  S
C515        C533   1.487       .  S
C515        C516   1.414       .  A
C516        C557   1.480       .  S
C516        C517   1.399       .  A
C517        H518   1.085       .  S
C520        C525   1.403       .  A
C520        H530   1.084       .  S
C521        C526   1.483       .  S
C521        C522   1.407       .  A
C522        C523   1.399       .  A
C522        O527   1.372       .  S
C523        C524   1.406       .  A
C523        H528   1.084       .  S
C525        O529   1.372       .  S
C526        C531   1.408       .  A
O527        H543   0.992       .  S
O529        H540   0.992       .  S
C531        C532   1.398       .  A
C531        O536   1.372       .  S
C532        C533   1.404       .  A
C532        H537   1.083       .  S
C534        C535   1.400       .  A
C534        O538   1.371       .  S
C535        H539   1.084       .  S
O536        H541   0.992       .  S
O538        H542   0.992       .  S
C544        C545   1.403       .  A
C544        C549   1.401       .  A
C544        H554   1.083       .  S
C545        C550   1.481       .  S
C546        C547   1.399       .  A
C546        O551   1.372       .  S
C547        H552   1.084       .  S
C548        C549   1.411       .  A
C549        O553   1.372       .  S
C550        C559   1.404       .  A
O551        H567   0.992   1_545  S
O553        H564   0.992       .  S
C555        C556   1.402       .  A
C555        O560   1.371       .  S
C556        H561   1.084       .  S
C557        C558   1.407       .  A
C558        C559   1.398       .  A
C558        O562   1.372       .  S
C559        H563   1.084       .  S
O560        H565   0.992       .  S
O562        H566   0.992       .  S
C568        C573   1.402       .  A
C568        H578   1.084       .  S
C569        C574   1.484       .  S
C569        C570   1.409   1_545  A
C570        C571   1.402       .  A
C570        O575   1.373       .  S
C571        H576   1.082       .  S
C572        C573   1.407       .  A
C573        O577   1.372       .  S
C574        C579   1.409   1_545  A
O575        H591   0.992       .  S
O577        H588   0.992       .  S
C579        C580   1.403       .  A
C579        O584   1.373       .  S
C580        C581   1.404       .  A
C580        H585   1.083       .  S
C582        C583   1.398       .  A
C582        O586   1.372       .  S
C583        H587   1.084       .  S
O584        H589   0.992       .  S
O586        H590   0.992       .  S
C592        C597   1.402       .  A
C592        H602   1.083       .  S
C593        C598   1.491       .  S
C593        C594   1.410       .  A
C594        C595   1.399       .  A
C594        O599   1.372       .  S
C595        C596   1.407       .  A
C595        H600   1.084       .  S
C597        O601   1.372       .  S
C598        C603   1.411       .  A
O599        H615   0.992       .  S
O601        H612   0.992       .  S
C603        C604   1.403       .  A
C603        O608   1.372       .  S
C604        C605   1.403       .  A
C604        H609   1.084       .  S
C606        C607   1.401       .  A
C606        O610   1.372       .  S
C607        H611   1.083       .  S
O608        H613   0.992       .  S
O610        H614   0.991       .  S
C616        C617   1.403       .  A
C616        C621   1.404       .  A
C616        H626   1.084       .  S
C617        C622   1.477       .  S
C617       C1566   1.404   1_455  A
C618       C1565   1.404       .  A
C618        C619   1.395       .  A
C618        O623   1.372       .  S
C619       C1568   1.406       .  A
C619        H624   1.083       .  S
C620       C1451   1.482       .  S
C620       C1567   1.406   1_455  A
C620        C621   1.413       .  A
C621        O625   1.372       .  S
C622        C627   1.407       .  A
C622       C1579   1.401   1_455  A
O623        H639   0.992       .  S
O625        H636   0.992       .  S
C627        C628   1.401       .  A
C627        O632   1.371       .  S
C628        C629   1.405       .  A
C628        H633   1.083       .  S
C629       C1578   1.409   1_455  A
C630       C1577   1.409       .  A
C630        C631   1.398       .  A
C630        O634   1.372       .  S
C631       C1570   1.401       .  A
C631        H635   1.084       .  S
O632        H637   0.992       .  S
O634        H638   0.992       .  S
C640        C641   1.405   1_655  A
C640        C645   1.403       .  A
C640       H1598   1.084       .  S
C641        C646   1.484   1_455  S
C641        C642   1.408       .  A
C642        C643   1.401       .  A
C642        O647   1.373       .  S
C643        C644   1.403       .  A
C643        H648   1.084       .  S
C644        C645   1.407   1_455  A
C645       O1597   1.372       .  S
C646        C651   1.409   1_655  A
C646       C1603   1.401       .  A
O647        H663   0.992       .  S
O649       C1593   1.372       .  S
O649        H660   0.992       .  S
H650       C1588   1.084       .  S
C651        C652   1.402       .  A
C651        O656   1.371       .  S
C652        C653   1.407   1_455  A
C652        H657   1.083       .  S
C653       C1602   1.416       .  A
C654       C1601   1.416       .  A
C654        C655   1.400       .  A
C654        O658   1.371       .  S
C655       C1594   1.401       .  A
C655        H659   1.084       .  S
O656        H661   0.992   1_455  S
O658        H662   0.992       .  S
C664       C1613   1.407       .  A
C664        C669   1.400       .  A
C664        H674   1.083       .  S
C665        C670   1.488       .  S
C665       C1612   1.407       .  A
C665        C666   1.412       .  A
C666        C667   1.402       .  A
C666        O671   1.372       .  S
C667       C1616   1.400       .  A
C667        H672   1.084       .  S
C668       C1615   1.400   1_455  A
C668        C669   1.406       .  A
C669        O673   1.372       .  S
C670        C675   1.411       .  A
C670       C1627   1.401       .  A
O671        H687   0.992       .  S
O673        H684   0.992       .  S
C675        C676   1.407       .  A
C675        O680   1.373       .  S
C676        C677   1.406       .  A
C676        H681   1.083       .  S
C677       C1626   1.414       .  A
C678       C1625   1.414       .  A
C678        C679   1.396       .  A
C678        O682   1.372       .  S
C679       C1618   1.401       .  A
C679        H683   1.084       .  S
O680        H685   0.992       .  S
O682        H686   0.992       .  S
C688        C689   1.403       .  A
C688        C693   1.395       .  A
C688        H698   1.083       .  S
C689        C694   1.482       .  S
C689       C1638   1.411   1_455  A
C690       C1637   1.411       .  A
C690        C691   1.400       .  A
C690        O695   1.372       .  S
C691       C1640   1.404       .  A
C691        H696   1.084       .  S
C692       C1639   1.404   1_455  A
C692        C693   1.410       .  A
C693        O697   1.372       .  S
C694        C699   1.410       .  A
C694       C1651   1.407   1_455  A
O695        H711   0.991       .  S
O697        H708   0.992       .  S
C699        C700   1.395       .  A
C699        O704   1.371       .  S
C700        C701   1.399       .  A
C700        H705   1.083       .  S
C701       C1650   1.405   1_455  A
C702       C1649   1.405       .  A
C702        C703   1.398       .  A
C702        O706   1.372       .  S
C703       C1642   1.407       .  A
C703        H707   1.083       .  S
O704        H709   0.992       .  S
O706        H710   0.992       .  S
O712       Co732   1.972   1_556  S
O712       C1668   1.256       .  A
O713       Co733   1.972       .  S
O715      Co1683   2.036   1_565  S
O715       C1671   1.274   1_655  A
O716        C722   1.264       .  A
O717        C723   1.258       .  A
O718      Co1683   2.027   1_455  S
O718        C721   1.278   1_545  A
O719        C720   1.261   1_655  A
C720       O1660   1.256       .  A
C720        C929   1.476       .  S
C722        C785   1.480       .  S
C723       O1663   1.274       .  A
C723        C914   1.487       .  S
O724        C737   1.276       .  A
O725        C738   1.300       .  A
O726      Co1682   1.979       .  S
O726        C739   1.271       .  A
O727        C740   1.259       .  A
O728       Co733   2.004       .  S
O728       C1688   1.262       .  A
O729       Co732   2.020   1_556  S
O731      Co1682   1.885       .  S
O731       C1686   1.266       .  A
Co732       O736   2.021       .  S
Co733       O973   2.007   1_455  S
Co734      O1674   1.979       .  S
Co734      O1679   1.885       .  S
Co734      O1210   2.018   1_556  S
Co735      O1663   2.036   1_545  S
Co735      O1666   2.027       .  S
O736       Co970   2.005   1_564  S
O736      Co1208   2.014   1_564  S
C737        C818   1.487       .  S
C738       O1679   1.266   1_455  A
C738        C890   1.488   1_455  S
C739        C833   1.491       .  S
C740       O1676   1.262       .  A
C740       C1805   1.482       .  S
C741        C905   1.480       .  S
C741        C742   1.406       .  A
C741        C746   1.397       .  A
C742        C938   1.471       .  S
C742        C743   1.400       .  A
C743        C744   1.405       .  A
C743        H748   1.084       .  S
C744        C881   1.484       .  S
C744        C745   1.419       .  A
C745        C866   1.483       .  S
C745        C746   1.406       .  A
C746        H747   1.084       .  S
C749        C842   1.482       .  S
C749        C750   1.414       .  A
C749        C754   1.400       .  A
C750        C809   1.481       .  S
C750        C751   1.407       .  A
C751        C752   1.406       .  A
C751        H756   1.084       .  S
C752        C770   1.487       .  S
C752        C753   1.414       .  A
C753        C794   1.480       .  S
C753        C754   1.399       .  A
C754        H755   1.085       .  S
C757        C762   1.403       .  A
C757        H767   1.083       .  S
C758        C763   1.483       .  S
C758        C759   1.407       .  A
C759        C760   1.399       .  A
C759        O764   1.372       .  S
C760        C761   1.406       .  A
C760        H765   1.084       .  S
C762        O766   1.372       .  S
C763        C768   1.408       .  A
O764        H780   0.992       .  S
O766        H777   0.992       .  S
C768        C769   1.398       .  A
C768        O773   1.372       .  S
C769        C770   1.404       .  A
C769        H774   1.083       .  S
C771        C772   1.400       .  A
C771        O775   1.371       .  S
C772        H776   1.084       .  S
O773        H778   0.992       .  S
O775        H779   0.992       .  S
C781        C782   1.403       .  A
C781        C786   1.401       .  A
C781        H791   1.083       .  S
C782        C787   1.481       .  S
C783        C784   1.399       .  A
C783        O788   1.372       .  S
C784        H789   1.084       .  S
C785        C786   1.411       .  A
C786        O790   1.372       .  S
C787        C796   1.404       .  A
O788        H804   0.992   1_545  S
O790        H801   0.992       .  S
C792        C793   1.402       .  A
C792        O797   1.371       .  S
C793        H798   1.084       .  S
C794        C795   1.407       .  A
C795        C796   1.398       .  A
C795        O799   1.372       .  S
C796        H800   1.084       .  S
O797        H802   0.992       .  S
O799        H803   0.992       .  S
C805        C810   1.402       .  A
C805        H815   1.084       .  S
C806        C811   1.484       .  S
C806        C807   1.409   1_545  A
C807        C808   1.402       .  A
C807        O812   1.373       .  S
C808        H813   1.082       .  S
C809        C810   1.407       .  A
C810        O814   1.372       .  S
C811        C816   1.409   1_545  A
O812        H828   0.992       .  S
O814        H825   0.992       .  S
C816        C817   1.403       .  A
C816        O821   1.373       .  S
C817        C818   1.404       .  A
C817        H822   1.083       .  S
C819        C820   1.398       .  A
C819        O823   1.372       .  S
C820        H824   1.084       .  S
O821        H826   0.992       .  S
O823        H827   0.992       .  S
C829        C834   1.402       .  A
C829        H839   1.083       .  S
C830        C835   1.491       .  S
C830        C831   1.410       .  A
C831        C832   1.399       .  A
C831        O836   1.372       .  S
C832        C833   1.407       .  A
C832        H837   1.084       .  S
C834        O838   1.372       .  S
C835        C840   1.411       .  A
O836        H852   0.992       .  S
O838        H849   0.992       .  S
C840        C841   1.403       .  A
C840        O845   1.372       .  S
C841        C842   1.403       .  A
C841        H846   1.084       .  S
C843        C844   1.401       .  A
C843        O847   1.372       .  S
C844        H848   1.083       .  S
O845        H850   0.992       .  S
O847        H851   0.991       .  S
C853        C854   1.403       .  A
C853        C858   1.404       .  A
C853        H863   1.084       .  S
C854        C859   1.477       .  S
C854       C1803   1.404   1_455  A
C855       C1802   1.404       .  A
C855        C856   1.395       .  A
C855        O860   1.372       .  S
C856       C1805   1.406       .  A
C856        H861   1.083       .  S
C857       C1688   1.482       .  S
C857       C1804   1.406   1_455  A
C857        C858   1.413       .  A
C858        O862   1.372       .  S
C859        C864   1.407       .  A
C859       C1816   1.401   1_455  A
O860        H876   0.992       .  S
O862        H873   0.992       .  S
C864        C865   1.401       .  A
C864        O869   1.371       .  S
C865        C866   1.405       .  A
C865        H870   1.083       .  S
C866       C1815   1.409   1_455  A
C867       C1814   1.409       .  A
C867        C868   1.398       .  A
C867        O871   1.372       .  S
C868       C1807   1.401       .  A
C868        H872   1.084       .  S
O869        H874   0.992       .  S
O871        H875   0.992       .  S
C877        C878   1.405   1_655  A
C877        C882   1.403       .  A
C877       H1835   1.084       .  S
C878        C883   1.484   1_455  S
C878        C879   1.408       .  A
C879        C880   1.401       .  A
C879        O884   1.373       .  S
C880        C881   1.403       .  A
C880        H885   1.084       .  S
C881        C882   1.407   1_455  A
C882       O1834   1.372       .  S
C883        C888   1.409   1_655  A
C883       C1840   1.401       .  A
O884        H900   0.992       .  S
O886       C1830   1.372       .  S
O886        H897   0.992       .  S
H887       C1825   1.084       .  S
C888        C889   1.402       .  A
C888        O893   1.371       .  S
C889        C890   1.407   1_455  A
C889        H894   1.083       .  S
C890       C1839   1.416       .  A
C891       C1838   1.416       .  A
C891        C892   1.400       .  A
C891        O895   1.371       .  S
C892       C1831   1.401       .  A
C892        H896   1.084       .  S
O893        H898   0.992   1_455  S
O895        H899   0.992       .  S
C901       C1850   1.407       .  A
C901        C906   1.400       .  A
C901        H911   1.083       .  S
C902        C907   1.488       .  S
C902       C1849   1.407       .  A
C902        C903   1.412       .  A
C903        C904   1.402       .  A
C903        O908   1.372       .  S
C904       C1853   1.400       .  A
C904        H909   1.084       .  S
C905       C1852   1.400   1_455  A
C905        C906   1.406       .  A
C906        O910   1.372       .  S
C907        C912   1.411       .  A
C907       C1864   1.401       .  A
O908        H924   0.992       .  S
O910        H921   0.992       .  S
C912        C913   1.407       .  A
C912        O917   1.373       .  S
C913        C914   1.406       .  A
C913        H918   1.083       .  S
C914       C1863   1.414       .  A
C915       C1862   1.414       .  A
C915        C916   1.396       .  A
C915        O919   1.372       .  S
C916       C1855   1.401       .  A
C916        H920   1.084       .  S
O917        H922   0.992       .  S
O919        H923   0.992       .  S
C925        C926   1.403       .  A
C925        C930   1.395       .  A
C925        H935   1.083       .  S
C926        C931   1.482       .  S
C926       C1875   1.411   1_455  A
C927       C1874   1.411       .  A
C927        C928   1.400       .  A
C927        O932   1.372       .  S
C928       C1877   1.404       .  A
C928        H933   1.084       .  S
C929       C1876   1.404   1_455  A
C929        C930   1.410       .  A
C930        O934   1.372       .  S
C931        C936   1.410       .  A
C931       C1888   1.407   1_455  A
O932        H948   0.991       .  S
O934        H945   0.992       .  S
C936        C937   1.395       .  A
C936        O941   1.371       .  S
C937        C938   1.399       .  A
C937        H942   1.083       .  S
C938       C1887   1.405   1_455  A
C939       C1886   1.405       .  A
C939        C940   1.398       .  A
C939        O943   1.372       .  S
C940       C1879   1.407       .  A
C940        H944   1.083       .  S
O941        H946   0.992       .  S
O943        H947   0.992       .  S
O949       Co969   1.968   1_455  S
O950       Co970   1.964   1_564  S
O950       C1432   1.266       .  A
O951      Co1445   2.112       .  S
O951       C1433   1.296       .  A
O953      Co1207   1.889       .  S
O953        C959   1.264       .  A
O954      Co1206   1.952   1_455  S
O954        C960   1.256       .  A
O955        C958   1.276       .  A
O956      Co1445   2.012       .  S
O956        C957   1.263       .  A
C957       C1166   1.477       .  S
C958       O1424   1.269       .  A
C958       C1472   1.486       .  S
C959       O1425   1.296   1_545  A
C959       C1022   1.479       .  S
C960       C1151   1.492       .  S
O961      Co1206   2.034       .  S
O961        C974   1.276       .  A
O962      Co1207   2.107       .  S
O962        C975   1.298       .  A
O963        C976   1.270       .  A
O964      Co1446   1.972       .  S
O964        C977   1.256   1_655  A
O965       Co970   2.011   1_554  S
O966       Co969   2.023       .  S
O966       C1450   1.278       .  A
O967      Co1446   1.953       .  S
O967       C1448   1.258   1_545  A
Co969      O1191   1.952   1_655  S
Co969      O1198   2.034       .  S
Co969       O973   2.019       .  S
Co970      O1190   1.889       .  S
Co970      O1199   2.107       .  S
Co971      O1425   2.109   1_545  S
Co971      O1430   2.005   1_545  S
Co972      O1438   1.975       .  S
Co972      O1441   1.955       .  S
Co972      O1210   2.043       .  S
O973      Co1209   2.043       .  S
C974       O1441   1.260       .  A
C974       C1055   1.476       .  S
C975       C1127   1.485       .  S
C976       O1440   1.278   1_545  A
C976       C1070   1.478       .  S
C978       C1142   1.480       .  S
C978        C979   1.407       .  A
C978        C983   1.398       .  A
C979       C1175   1.473       .  S
C979        C980   1.401       .  A
C980        C981   1.406       .  A
C980        H985   1.084       .  S
C981       C1118   1.483       .  S
C981        C982   1.418       .  A
C982       C1103   1.482       .  S
C982        C983   1.405       .  A
C983        H984   1.084       .  S
C986       C1079   1.482       .  S
C986        C987   1.415       .  A
C986        C991   1.402       .  A
C987       C1046   1.486       .  S
C987        C988   1.407       .  A
C988        C989   1.405       .  A
C988        H993   1.084       .  S
C989       C1007   1.488       .  S
C989        C990   1.413       .  A
C990       C1031   1.481       .  S
C990        C991   1.402       .  A
C991        H992   1.085       .  S
C994       C1469   1.404       .  A
C994        C999   1.403       .  A
C994       H1004   1.084       .  S
C995       C1000   1.482       .  S
C995       C1468   1.405       .  A
C995        C996   1.407       .  A
C996        C997   1.397       .  A
C996       O1001   1.372       .  S
C997        C998   1.405       .  A
C997       H1002   1.084       .  S
C998       C1432   1.480       .  S
C998       C1473   1.411       .  A
C999       C1472   1.414       .  A
C999       O1003   1.372       .  S
C1000      C1005   1.408   1_565  A
C1000      C1483   1.403       .  A
O1001      H1017   0.992   1_565  S
O1003      H1014   0.992       .  S
C1005      C1006   1.400       .  A
C1005      O1010   1.372       .  S
C1006      C1007   1.404   1_545  A
C1006      H1011   1.082       .  S
C1007      C1482   1.409       .  A
C1008      C1481   1.409       .  A
C1008      C1009   1.403       .  A
C1008      O1012   1.371       .  S
C1009      C1474   1.405       .  A
C1009      H1013   1.084       .  S
O1010      H1015   0.992       .  S
O1012      H1016   0.992       .  S
C1018      C1019   1.403       .  A
C1018      C1023   1.400       .  A
C1018      H1028   1.083       .  S
C1019      C1024   1.483       .  S
C1019      C1494   1.409   1_565  A
C1020      C1493   1.408       .  A
C1020      C1021   1.398       .  A
C1020      O1025   1.372       .  S
C1021      C1496   1.406       .  A
C1021      H1026   1.084       .  S
C1022      C1495   1.405       .  A
C1022      C1023   1.410   1_545  A
C1023      O1027   1.372       .  S
C1024      C1503   1.409       .  A
C1024      C1033   1.404   1_565  A
O1025      H1041   0.992       .  S
O1027      H1038   0.992   1_565  S
C1029      C1498   1.408       .  A
C1029      C1030   1.400       .  A
C1029      O1034   1.371       .  S
C1030      C1505   1.403       .  A
C1030      H1035   1.084       .  S
C1031      C1504   1.403       .  A
C1031      C1032   1.407   1_565  A
C1032      C1033   1.398       .  A
C1032      O1036   1.372       .  S
C1033      H1037   1.084       .  S
O1034      H1039   0.992       .  S
O1036      H1040   0.992       .  S
C1042      C1517   1.404       .  A
C1042      C1047   1.401       .  A
C1042      H1052   1.084       .  S
C1043      C1048   1.486       .  S
C1043      C1516   1.405       .  A
C1043      C1044   1.409       .  A
C1044      C1045   1.403       .  A
C1044      O1049   1.372       .  S
C1045      C1520   1.401       .  A
C1045      H1050   1.084       .  S
C1046      C1519   1.402       .  A
C1046      C1047   1.410   1_565  A
C1047      O1051   1.372       .  S
C1048      C1053   1.412       .  A
C1048      C1531   1.402       .  A
O1049      H1065   0.992       .  S
O1051      H1062   0.992       .  S
C1053      C1054   1.407       .  A
C1053      O1058   1.372       .  S
C1054      C1055   1.402       .  A
C1054      H1059   1.084       .  S
C1055      C1530   1.411       .  A
C1056      C1529   1.418   1_545  A
C1056      C1057   1.399       .  A
C1056      O1060   1.372       .  S
C1057      C1522   1.400       .  A
C1057      H1061   1.084       .  S
O1058      H1063   0.992       .  S
O1060      H1064   0.992       .  S
C1066      C1541   1.405       .  A
C1066      C1071   1.404       .  A
C1066      H1076   1.083       .  S
C1067      C1072   1.493       .  S
C1067      C1540   1.406       .  A
C1067      C1068   1.413   1_545  A
C1068      C1069   1.401       .  A
C1068      O1073   1.371       .  S
C1069      C1070   1.403   1_565  A
C1069      H1074   1.084       .  S
C1070      C1545   1.409       .  A
C1071      C1544   1.414       .  A
C1071      O1075   1.371       .  S
C1072      C1077   1.413       .  A
C1072      C1555   1.407   1_545  A
O1073      H1089   0.992       .  S
O1075      H1086   0.992       .  S
C1077      C1078   1.404       .  A
C1077      O1082   1.372       .  S
C1078      C1079   1.401   1_545  A
C1078      H1083   1.084       .  S
C1079      C1554   1.406       .  A
C1080      C1553   1.406       .  A
C1080      C1081   1.402       .  A
C1080      O1084   1.372       .  S
C1081      C1546   1.406       .  A
C1081      H1085   1.083       .  S
O1082      H1087   0.992       .  S
O1084      H1088   0.992       .  S
C1090      C1091   1.405       .  A
C1090      C1095   1.405       .  A
C1090      H1100   1.083       .  S
C1091      C1096   1.482       .  S
C1092      C1093   1.395       .  A
C1092      O1097   1.372       .  S
C1093      H1098   1.083       .  S
C1094      C1095   1.412       .  A
C1095      O1099   1.371       .  S
C1096      C1101   1.410       .  A
O1097      H1113   0.992       .  S
O1099      H1110   0.992       .  S
C1101      C1102   1.403       .  A
C1101      O1106   1.371       .  S
C1102      C1103   1.404       .  A
C1102      H1107   1.083       .  S
C1104      C1105   1.397       .  A
C1104      O1108   1.372       .  S
C1105      H1109   1.084       .  S
O1106      H1111   0.992       .  S
O1108      H1112   0.992       .  S
C1114      C1115   1.404       .  A
C1114      C1119   1.403       .  A
C1115      C1120   1.482       .  S
C1115      C1116   1.408       .  A
C1116      C1117   1.401       .  A
C1116      O1121   1.373       .  S
C1117      C1118   1.403       .  A
C1117      H1122   1.084       .  S
C1118      C1119   1.407       .  A
C1120      C1125   1.408       .  A
O1121      H1137   0.992       .  S
O1123      H1134   0.992       .  S
C1125      C1126   1.400       .  A
C1125      O1130   1.371       .  S
C1126      C1127   1.406       .  A
C1126      H1131   1.084       .  S
C1128      C1129   1.400       .  A
C1128      O1132   1.372       .  S
C1129      H1133   1.084       .  S
O1130      H1135   0.992       .  S
O1132      H1136   0.992       .  S
C1138      C1143   1.401       .  A
C1138      H1148   1.083       .  S
C1139      C1144   1.488       .  S
C1139      C1140   1.411   1_455  A
C1140      C1141   1.402       .  A
C1140      O1145   1.372       .  S
C1141      H1146   1.084       .  S
C1142      C1143   1.405       .  A
C1143      O1147   1.372       .  S
C1144      C1149   1.410   1_455  A
O1145      H1161   0.992       .  S
O1147      H1158   0.992       .  S
C1149      C1150   1.408       .  A
C1149      O1154   1.373       .  S
C1150      C1151   1.407   1_655  A
C1150      H1155   1.083       .  S
C1152      C1153   1.397       .  A
C1152      O1156   1.372       .  S
C1153      H1157   1.084       .  S
O1154      H1159   0.992       .  S
O1156      H1160   0.992       .  S
C1162      C1163   1.403       .  A
C1162      C1167   1.396       .  A
C1162      H1172   1.084       .  S
C1163      C1168   1.483       .  S
C1164      C1165   1.400       .  A
C1164      O1169   1.372       .  S
C1165      H1170   1.084       .  S
C1166      C1167   1.411       .  A
C1167      O1171   1.372       .  S
C1168      C1173   1.409       .  A
O1169      H1185   0.991       .  S
O1171      H1182   0.992       .  S
C1173      C1174   1.394       .  A
C1173      O1178   1.371       .  S
C1174      C1175   1.399       .  A
C1174      H1179   1.083       .  S
C1176      C1177   1.401       .  A
C1176      O1180   1.372       .  S
C1177      H1181   1.083       .  S
O1178      H1183   0.992       .  S
O1180      H1184   0.991       .  S
O1186     Co1206   1.968   1_456  S
O1187     Co1207   1.964   1_565  S
O1187      C1669   1.266       .  A
O1188     Co1682   2.112       .  S
O1188      C1670   1.296       .  A
O1190      C1196   1.264       .  A
O1191      C1197   1.256       .  A
O1192      C1195   1.276       .  A
O1193     Co1682   2.012       .  S
O1193      C1194   1.263       .  A
C1194      C1403   1.477       .  S
C1195      O1661   1.268       .  A
C1195      C1709   1.486       .  S
C1196      O1662   1.296   1_545  A
C1196      C1259   1.479       .  S
C1197      C1388   1.492       .  S
O1198      C1211   1.276       .  A
O1199      C1212   1.298       .  A
O1200      C1213   1.270       .  A
O1201     Co1683   1.971       .  S
O1201      C1214   1.256   1_655  A
O1202     Co1207   2.011       .  S
O1203     Co1206   2.023   1_556  S
O1203      C1687   1.278       .  A
O1204     Co1683   1.953       .  S
O1204      C1685   1.258   1_545  A
Co1206     O1210   2.019       .  S
Co1208     O1662   2.109   1_545  S
Co1208     O1667   2.005   1_545  S
Co1209     O1675   1.975       .  S
Co1209     O1678   1.955       .  S
C1211      O1678   1.260       .  A
C1211      C1292   1.476       .  S
C1212      C1364   1.485       .  S
C1213      O1677   1.278   1_545  A
C1213      C1307   1.478       .  S
C1215      C1379   1.480       .  S
C1215      C1216   1.407       .  A
C1215      C1220   1.398       .  A
C1216      C1412   1.473       .  S
C1216      C1217   1.401       .  A
C1217      C1218   1.406       .  A
C1217      H1222   1.084       .  S
C1218      C1355   1.483       .  S
C1218      C1219   1.418       .  A
C1219      C1340   1.482       .  S
C1219      C1220   1.405       .  A
C1220      H1221   1.084       .  S
C1223      C1316   1.482       .  S
C1223      C1224   1.415       .  A
C1223      C1228   1.402       .  A
C1224      C1283   1.486       .  S
C1224      C1225   1.407       .  A
C1225      C1226   1.405       .  A
C1225      H1230   1.084       .  S
C1226      C1244   1.488       .  S
C1226      C1227   1.413       .  A
C1227      C1268   1.480       .  S
C1227      C1228   1.402       .  A
C1228      H1229   1.085       .  S
C1231      C1706   1.404       .  A
C1231      C1236   1.403       .  A
C1231      H1241   1.084       .  S
C1232      C1237   1.482       .  S
C1232      C1705   1.405       .  A
C1232      C1233   1.407       .  A
C1233      C1234   1.397       .  A
C1233      O1238   1.372       .  S
C1234      C1235   1.405       .  A
C1234      H1239   1.084       .  S
C1235      C1669   1.480       .  S
C1235      C1710   1.411       .  A
C1236      C1709   1.414       .  A
C1236      O1240   1.372       .  S
C1237      C1242   1.408   1_565  A
C1237      C1720   1.403       .  A
O1238      H1254   0.992   1_565  S
O1240      H1251   0.992       .  S
C1242      C1243   1.400       .  A
C1242      O1247   1.372       .  S
C1243      C1244   1.404   1_545  A
C1243      H1248   1.082       .  S
C1244      C1719   1.409       .  A
C1245      C1718   1.409       .  A
C1245      C1246   1.403       .  A
C1245      O1249   1.371       .  S
C1246      C1711   1.405       .  A
C1246      H1250   1.084       .  S
O1247      H1252   0.992       .  S
O1249      H1253   0.992       .  S
C1255      C1256   1.403       .  A
C1255      C1260   1.400       .  A
C1255      H1265   1.083       .  S
C1256      C1261   1.483       .  S
C1256      C1731   1.409   1_565  A
C1257      C1730   1.408       .  A
C1257      C1258   1.398       .  A
C1257      O1262   1.372       .  S
C1258      C1733   1.406       .  A
C1258      H1263   1.084       .  S
C1259      C1732   1.405       .  A
C1259      C1260   1.410   1_545  A
C1260      O1264   1.372       .  S
C1261      C1740   1.409       .  A
C1261      C1270   1.404   1_565  A
O1262      H1278   0.992       .  S
O1264      H1275   0.992   1_565  S
C1266      C1735   1.408       .  A
C1266      C1267   1.400       .  A
C1266      O1271   1.371       .  S
C1267      C1742   1.403       .  A
C1267      H1272   1.084       .  S
C1268      C1741   1.403       .  A
C1268      C1269   1.407   1_565  A
C1269      C1270   1.398       .  A
C1269      O1273   1.372       .  S
C1270      H1274   1.084       .  S
O1271      H1276   0.992       .  S
O1273      H1277   0.992       .  S
C1279      C1754   1.404       .  A
C1279      C1284   1.401       .  A
C1279      H1289   1.084       .  S
C1280      C1285   1.486       .  S
C1280      C1753   1.405       .  A
C1280      C1281   1.409       .  A
C1281      C1282   1.403       .  A
C1281      O1286   1.372       .  S
C1282      C1757   1.401       .  A
C1282      H1287   1.084       .  S
C1283      C1756   1.402       .  A
C1283      C1284   1.410   1_565  A
C1284      O1288   1.372       .  S
C1285      C1290   1.412       .  A
C1285      C1768   1.402       .  A
O1286      H1302   0.992       .  S
O1288      H1299   0.992       .  S
C1290      C1291   1.407       .  A
C1290      O1295   1.372       .  S
C1291      C1292   1.402       .  A
C1291      H1296   1.084       .  S
C1292      C1767   1.411       .  A
C1293      C1766   1.418   1_545  A
C1293      C1294   1.399       .  A
C1293      O1297   1.372       .  S
C1294      C1759   1.400       .  A
C1294      H1298   1.084       .  S
O1295      H1300   0.992       .  S
O1297      H1301   0.992       .  S
C1303      C1778   1.405       .  A
C1303      C1308   1.404       .  A
C1303      H1313   1.083       .  S
C1304      C1309   1.493       .  S
C1304      C1777   1.406       .  A
C1304      C1305   1.413   1_545  A
C1305      C1306   1.401       .  A
C1305      O1310   1.371       .  S
C1306      C1307   1.403   1_565  A
C1306      H1311   1.084       .  S
C1307      C1782   1.409       .  A
C1308      C1781   1.414       .  A
C1308      O1312   1.371       .  S
C1309      C1314   1.413       .  A
C1309      C1792   1.407   1_545  A
O1310      H1326   0.992       .  S
O1312      H1323   0.992       .  S
C1314      C1315   1.404       .  A
C1314      O1319   1.372       .  S
C1315      C1316   1.401   1_545  A
C1315      H1320   1.084       .  S
C1316      C1791   1.406       .  A
C1317      C1790   1.406       .  A
C1317      C1318   1.402       .  A
C1317      O1321   1.372       .  S
C1318      C1783   1.406       .  A
C1318      H1322   1.083       .  S
O1319      H1324   0.992       .  S
O1321      H1325   0.992       .  S
C1327      C1328   1.405       .  A
C1327      C1332   1.405       .  A
C1327      H1337   1.083       .  S
C1328      C1333   1.482       .  S
C1329      C1330   1.396       .  A
C1329      O1334   1.372       .  S
C1330      H1335   1.083       .  S
C1331      C1332   1.412       .  A
C1332      O1336   1.371       .  S
C1333      C1338   1.410       .  A
O1334      H1350   0.992       .  S
O1336      H1347   0.992       .  S
C1338      C1339   1.403       .  A
C1338      O1343   1.371       .  S
C1339      C1340   1.404       .  A
C1339      H1344   1.083       .  S
C1341      C1342   1.397       .  A
C1341      O1345   1.372       .  S
C1342      H1346   1.084       .  S
O1343      H1348   0.992       .  S
O1345      H1349   0.992       .  S
C1351      C1352   1.404       .  A
C1351      C1356   1.403       .  A
C1352      C1357   1.482       .  S
C1352      C1353   1.408       .  A
C1353      C1354   1.401       .  A
C1353      O1358   1.373       .  S
C1354      C1355   1.403       .  A
C1354      H1359   1.084       .  S
C1355      C1356   1.408       .  A
C1357      C1362   1.408       .  A
O1358      H1374   0.992       .  S
O1360      H1371   0.992       .  S
C1362      C1363   1.400       .  A
C1362      O1367   1.371       .  S
C1363      C1364   1.406       .  A
C1363      H1368   1.084       .  S
C1365      C1366   1.400       .  A
C1365      O1369   1.372       .  S
C1366      H1370   1.084       .  S
O1367      H1372   0.992       .  S
O1369      H1373   0.992       .  S
C1375      C1380   1.401       .  A
C1375      H1385   1.083       .  S
C1376      C1381   1.488       .  S
C1376      C1377   1.411   1_455  A
C1377      C1378   1.402       .  A
C1377      O1382   1.372       .  S
C1378      H1383   1.084       .  S
C1379      C1380   1.405       .  A
C1380      O1384   1.372       .  S
C1381      C1386   1.410   1_455  A
O1382      H1398   0.992       .  S
O1384      H1395   0.992       .  S
C1386      C1387   1.408       .  A
C1386      O1391   1.373       .  S
C1387      C1388   1.407   1_655  A
C1387      H1392   1.083       .  S
C1389      C1390   1.397       .  A
C1389      O1393   1.372       .  S
C1390      H1394   1.084       .  S
O1391      H1396   0.992       .  S
O1393      H1397   0.992       .  S
C1399      C1400   1.403       .  A
C1399      C1404   1.396       .  A
C1399      H1409   1.084       .  S
C1400      C1405   1.483       .  S
C1401      C1402   1.400       .  A
C1401      O1406   1.372       .  S
C1402      H1407   1.084       .  S
C1403      C1404   1.411       .  A
C1404      O1408   1.372       .  S
C1405      C1410   1.409       .  A
O1406      H1422   0.991       .  S
O1408      H1419   0.992       .  S
C1410      C1411   1.394       .  A
C1410      O1415   1.371       .  S
C1411      C1412   1.399       .  A
C1411      H1416   1.083       .  S
C1413      C1414   1.401       .  A
C1413      O1417   1.372       .  S
C1414      H1418   1.083       .  S
O1415      H1420   0.992       .  S
O1417      H1421   0.991       .  S
O1423     Co1443   1.972   1_455  S
O1424     Co1444   1.972   1_554  S
O1427     Co1681   1.888       .  S
O1427      C1433   1.264       .  A
O1428     Co1680   1.953   1_455  S
O1428      C1434   1.258       .  A
O1429      C1432   1.278   1_545  A
O1430      C1431   1.261       .  A
C1431      C1640   1.476       .  S
C1433      C1496   1.480       .  S
C1434      C1625   1.487       .  S
O1435     Co1680   2.033       .  S
O1435      C1448   1.276       .  A
O1436     Co1681   2.113       .  S
O1436      C1449   1.300       .  A
O1437      C1450   1.271       .  A
O1438      C1451   1.259   1_655  A
O1439     Co1444   2.004   1_554  S
O1440     Co1443   2.020       .  S
Co1443     O1665   1.953   1_655  S
Co1443     O1672   2.033       .  S
Co1443     O1447   2.021       .  S
Co1444     O1664   1.888       .  S
Co1444     O1673   2.113       .  S
Co1446     O1684   2.034   1_545  S
O1447     Co1683   2.034   1_565  S
C1448      C1529   1.487       .  S
C1449      C1601   1.488       .  S
C1450      C1544   1.491       .  S
C1452      C1616   1.480       .  S
C1452      C1453   1.406       .  A
C1452      C1457   1.397       .  A
C1453      C1649   1.471       .  S
C1453      C1454   1.400       .  A
C1454      C1455   1.405       .  A
C1454      H1459   1.084       .  S
C1455      C1592   1.484       .  S
C1455      C1456   1.419       .  A
C1456      C1577   1.483       .  S
C1456      C1457   1.406       .  A
C1457      H1458   1.084       .  S
C1460      C1553   1.482       .  S
C1460      C1461   1.414       .  A
C1460      C1465   1.400       .  A
C1461      C1520   1.481       .  S
C1461      C1462   1.407       .  A
C1462      C1463   1.406       .  A
C1462      H1467   1.084       .  S
C1463      C1481   1.487       .  S
C1463      C1464   1.414       .  A
C1464      C1505   1.480       .  S
C1464      C1465   1.399       .  A
C1465      H1466   1.085       .  S
C1468      C1473   1.403       .  A
C1468      H1478   1.084       .  S
C1469      C1474   1.483       .  S
C1469      C1470   1.407       .  A
C1470      C1471   1.399       .  A
C1470      O1475   1.372       .  S
C1471      C1472   1.406       .  A
C1471      H1476   1.084       .  S
C1473      O1477   1.372       .  S
C1474      C1479   1.408       .  A
O1475      H1491   0.992       .  S
O1477      H1488   0.992       .  S
C1479      C1480   1.398       .  A
C1479      O1484   1.372       .  S
C1480      C1481   1.404       .  A
C1480      H1485   1.083       .  S
C1482      C1483   1.400       .  A
C1482      O1486   1.371       .  S
C1483      H1487   1.084       .  S
O1484      H1489   0.992       .  S
O1486      H1490   0.992       .  S
C1492      C1493   1.403       .  A
C1492      C1497   1.401       .  A
C1492      H1502   1.083       .  S
C1493      C1498   1.481       .  S
C1494      C1495   1.399       .  A
C1494      O1499   1.372       .  S
C1495      H1500   1.084       .  S
C1496      C1497   1.411       .  A
C1497      O1501   1.372       .  S
C1498      C1507   1.404       .  A
O1499      H1515   0.992   1_545  S
O1501      H1512   0.992       .  S
C1503      C1504   1.402       .  A
C1503      O1508   1.371       .  S
C1504      H1509   1.084       .  S
C1505      C1506   1.407       .  A
C1506      C1507   1.398       .  A
C1506      O1510   1.372       .  S
C1507      H1511   1.084       .  S
O1508      H1513   0.992       .  S
O1510      H1514   0.992       .  S
C1516      C1521   1.402       .  A
C1516      H1526   1.084       .  S
C1517      C1522   1.484       .  S
C1517      C1518   1.409   1_545  A
C1518      C1519   1.402       .  A
C1518      O1523   1.373       .  S
C1519      H1524   1.082       .  S
C1520      C1521   1.407       .  A
C1521      O1525   1.372       .  S
C1522      C1527   1.409   1_545  A
O1523      H1539   0.992       .  S
O1525      H1536   0.992       .  S
C1527      C1528   1.403       .  A
C1527      O1532   1.373       .  S
C1528      C1529   1.404       .  A
C1528      H1533   1.083       .  S
C1530      C1531   1.398       .  A
C1530      O1534   1.372       .  S
C1531      H1535   1.084       .  S
O1532      H1537   0.992       .  S
O1534      H1538   0.992       .  S
C1540      C1545   1.402       .  A
C1540      H1550   1.083       .  S
C1541      C1546   1.491       .  S
C1541      C1542   1.410       .  A
C1542      C1543   1.399       .  A
C1542      O1547   1.372       .  S
C1543      C1544   1.407       .  A
C1543      H1548   1.084       .  S
C1545      O1549   1.372       .  S
C1546      C1551   1.411       .  A
O1547      H1563   0.992       .  S
O1549      H1560   0.992       .  S
C1551      C1552   1.403       .  A
C1551      O1556   1.372       .  S
C1552      C1553   1.403       .  A
C1552      H1557   1.084       .  S
C1554      C1555   1.401       .  A
C1554      O1558   1.372       .  S
C1555      H1559   1.083       .  S
O1556      H1561   0.992       .  S
O1558      H1562   0.991       .  S
C1564      C1565   1.403       .  A
C1564      C1569   1.404       .  A
C1564      H1574   1.084       .  S
C1565      C1570   1.477       .  S
C1566      C1567   1.395       .  A
C1566      O1571   1.372       .  S
C1567      H1572   1.083       .  S
C1568      C1569   1.413       .  A
C1569      O1573   1.372       .  S
C1570      C1575   1.407       .  A
O1571      H1587   0.992       .  S
O1573      H1584   0.992       .  S
C1575      C1576   1.401       .  A
C1575      O1580   1.371       .  S
C1576      C1577   1.405       .  A
C1576      H1581   1.083       .  S
C1578      C1579   1.398       .  A
C1578      O1582   1.372       .  S
C1579      H1583   1.084       .  S
O1580      H1585   0.992       .  S
O1582      H1586   0.992       .  S
C1588      C1589   1.405       .  A
C1588      C1593   1.403       .  A
C1589      C1594   1.484       .  S
C1589      C1590   1.408       .  A
C1590      C1591   1.401       .  A
C1590      O1595   1.373       .  S
C1591      C1592   1.403       .  A
C1591      H1596   1.084       .  S
C1592      C1593   1.407       .  A
C1594      C1599   1.409       .  A
O1595      H1611   0.992       .  S
O1597      H1608   0.992       .  S
C1599      C1600   1.402       .  A
C1599      O1604   1.371       .  S
C1600      C1601   1.407       .  A
C1600      H1605   1.083       .  S
C1602      C1603   1.400       .  A
C1602      O1606   1.371       .  S
C1603      H1607   1.084       .  S
O1604      H1609   0.992       .  S
O1606      H1610   0.992       .  S
C1612      C1617   1.400       .  A
C1612      H1622   1.083       .  S
C1613      C1618   1.488       .  S
C1613      C1614   1.412   1_455  A
C1614      C1615   1.402       .  A
C1614      O1619   1.372       .  S
C1615      H1620   1.084       .  S
C1616      C1617   1.406       .  A
C1617      O1621   1.372       .  S
C1618      C1623   1.411   1_455  A
O1619      H1635   0.992       .  S
O1621      H1632   0.992       .  S
C1623      C1624   1.407       .  A
C1623      O1628   1.373       .  S
C1624      C1625   1.406   1_655  A
C1624      H1629   1.083       .  S
C1626      C1627   1.396       .  A
C1626      O1630   1.372       .  S
C1627      H1631   1.084       .  S
O1628      H1633   0.992       .  S
O1630      H1634   0.992       .  S
C1636      C1637   1.403       .  A
C1636      C1641   1.395       .  A
C1636      H1646   1.083       .  S
C1637      C1642   1.482       .  S
C1638      C1639   1.400       .  A
C1638      O1643   1.372       .  S
C1639      H1644   1.084       .  S
C1640      C1641   1.410       .  A
C1641      O1645   1.372       .  S
C1642      C1647   1.410       .  A
O1643      H1659   0.991       .  S
O1645      H1656   0.992       .  S
C1647      C1648   1.395       .  A
C1647      O1652   1.371       .  S
C1648      C1649   1.399       .  A
C1648      H1653   1.083       .  S
C1650      C1651   1.398       .  A
C1650      O1654   1.372       .  S
C1651      H1655   1.083       .  S
O1652      H1657   0.992       .  S
O1654      H1658   0.992       .  S
O1660     Co1680   1.972   1_456  S
O1661     Co1681   1.972       .  S
O1664      C1670   1.264       .  A
O1665      C1671   1.258       .  A
O1666      C1669   1.278   1_545  A
O1667      C1668   1.261       .  A
C1668      C1877   1.476       .  S
C1670      C1733   1.480       .  S
C1671      C1862   1.487       .  S
O1672      C1685   1.276       .  A
O1673      C1686   1.300       .  A
O1674      C1687   1.271       .  A
O1675      C1688   1.259   1_655  A
O1676     Co1681   2.004       .  S
O1677     Co1680   2.020   1_556  S
Co1680     O1684   2.021       .  S
C1685      C1766   1.487       .  S
C1686      C1838   1.488       .  S
C1687      C1781   1.491       .  S
C1689      C1853   1.480       .  S
C1689      C1690   1.406       .  A
C1689      C1694   1.397       .  A
C1690      C1886   1.471       .  S
C1690      C1691   1.400       .  A
C1691      C1692   1.405       .  A
C1691      H1696   1.084       .  S
C1692      C1829   1.484       .  S
C1692      C1693   1.419       .  A
C1693      C1814   1.483       .  S
C1693      C1694   1.406       .  A
C1694      H1695   1.084       .  S
C1697      C1790   1.482       .  S
C1697      C1698   1.414       .  A
C1697      C1702   1.400       .  A
C1698      C1757   1.481       .  S
C1698      C1699   1.407       .  A
C1699      C1700   1.406       .  A
C1699      H1704   1.084       .  S
C1700      C1718   1.487       .  S
C1700      C1701   1.414       .  A
C1701      C1742   1.480       .  S
C1701      C1702   1.399       .  A
C1702      H1703   1.085       .  S
C1705      C1710   1.403       .  A
C1705      H1715   1.083       .  S
C1706      C1711   1.483       .  S
C1706      C1707   1.407       .  A
C1707      C1708   1.399       .  A
C1707      O1712   1.372       .  S
C1708      C1709   1.406       .  A
C1708      H1713   1.084       .  S
C1710      O1714   1.372       .  S
C1711      C1716   1.408       .  A
O1712      H1728   0.992       .  S
O1714      H1725   0.992       .  S
C1716      C1717   1.398       .  A
C1716      O1721   1.372       .  S
C1717      C1718   1.404       .  A
C1717      H1722   1.083       .  S
C1719      C1720   1.400       .  A
C1719      O1723   1.371       .  S
C1720      H1724   1.084       .  S
O1721      H1726   0.992       .  S
O1723      H1727   0.992       .  S
C1729      C1730   1.403       .  A
C1729      C1734   1.401       .  A
C1729      H1739   1.083       .  S
C1730      C1735   1.481       .  S
C1731      C1732   1.399       .  A
C1731      O1736   1.372       .  S
C1732      H1737   1.084       .  S
C1733      C1734   1.411       .  A
C1734      O1738   1.372       .  S
C1735      C1744   1.404       .  A
O1736      H1752   0.992   1_545  S
O1738      H1749   0.992       .  S
C1740      C1741   1.402       .  A
C1740      O1745   1.371       .  S
C1741      H1746   1.084       .  S
C1742      C1743   1.407       .  A
C1743      C1744   1.398       .  A
C1743      O1747   1.372       .  S
C1744      H1748   1.084       .  S
O1745      H1750   0.992       .  S
O1747      H1751   0.992       .  S
C1753      C1758   1.402       .  A
C1753      H1763   1.084       .  S
C1754      C1759   1.484       .  S
C1754      C1755   1.409   1_545  A
C1755      C1756   1.402       .  A
C1755      O1760   1.373       .  S
C1756      H1761   1.082       .  S
C1757      C1758   1.407       .  A
C1758      O1762   1.372       .  S
C1759      C1764   1.409   1_545  A
O1760      H1776   0.992       .  S
O1762      H1773   0.992       .  S
C1764      C1765   1.403       .  A
C1764      O1769   1.373       .  S
C1765      C1766   1.404       .  A
C1765      H1770   1.083       .  S
C1767      C1768   1.398       .  A
C1767      O1771   1.372       .  S
C1768      H1772   1.084       .  S
O1769      H1774   0.992       .  S
O1771      H1775   0.992       .  S
C1777      C1782   1.402       .  A
C1777      H1787   1.083       .  S
C1778      C1783   1.491       .  S
C1778      C1779   1.410       .  A
C1779      C1780   1.399       .  A
C1779      O1784   1.372       .  S
C1780      C1781   1.407       .  A
C1780      H1785   1.084       .  S
C1782      O1786   1.372       .  S
C1783      C1788   1.411       .  A
O1784      H1800   0.992       .  S
O1786      H1797   0.992       .  S
C1788      C1789   1.403       .  A
C1788      O1793   1.372       .  S
C1789      C1790   1.403       .  A
C1789      H1794   1.084       .  S
C1791      C1792   1.401       .  A
C1791      O1795   1.372       .  S
C1792      H1796   1.083       .  S
O1793      H1798   0.992       .  S
O1795      H1799   0.991       .  S
C1801      C1802   1.403       .  A
C1801      C1806   1.404       .  A
C1801      H1811   1.084       .  S
C1802      C1807   1.477       .  S
C1803      C1804   1.395       .  A
C1803      O1808   1.372       .  S
C1804      H1809   1.083       .  S
C1805      C1806   1.413       .  A
C1806      O1810   1.372       .  S
C1807      C1812   1.407       .  A
O1808      H1824   0.992       .  S
O1810      H1821   0.992       .  S
C1812      C1813   1.401       .  A
C1812      O1817   1.371       .  S
C1813      C1814   1.405       .  A
C1813      H1818   1.083       .  S
C1815      C1816   1.398       .  A
C1815      O1819   1.372       .  S
C1816      H1820   1.084       .  S
O1817      H1822   0.992       .  S
O1819      H1823   0.992       .  S
C1825      C1826   1.405       .  A
C1825      C1830   1.403       .  A
C1826      C1831   1.484       .  S
C1826      C1827   1.408       .  A
C1827      C1828   1.401       .  A
C1827      O1832   1.373       .  S
C1828      C1829   1.403       .  A
C1828      H1833   1.084       .  S
C1829      C1830   1.407       .  A
C1831      C1836   1.409       .  A
O1832      H1848   0.992       .  S
O1834      H1845   0.992       .  S
C1836      C1837   1.402       .  A
C1836      O1841   1.371       .  S
C1837      C1838   1.407       .  A
C1837      H1842   1.083       .  S
C1839      C1840   1.400       .  A
C1839      O1843   1.371       .  S
C1840      H1844   1.084       .  S
O1841      H1846   0.992       .  S
O1843      H1847   0.992       .  S
C1849      C1854   1.400       .  A
C1849      H1859   1.083       .  S
C1850      C1855   1.488       .  S
C1850      C1851   1.412   1_455  A
C1851      C1852   1.402       .  A
C1851      O1856   1.372       .  S
C1852      H1857   1.084       .  S
C1853      C1854   1.406       .  A
C1854      O1858   1.372       .  S
C1855      C1860   1.411   1_455  A
O1856      H1872   0.992       .  S
O1858      H1869   0.992       .  S
C1860      C1861   1.407       .  A
C1860      O1865   1.373       .  S
C1861      C1862   1.406   1_655  A
C1861      H1866   1.083       .  S
C1863      C1864   1.396       .  A
C1863      O1867   1.372       .  S
C1864      H1868   1.084       .  S
O1865      H1870   0.992       .  S
O1867      H1871   0.992       .  S
C1873      C1874   1.403       .  A
C1873      C1878   1.395       .  A
C1873      H1883   1.083       .  S
C1874      C1879   1.482       .  S
C1875      C1876   1.400       .  A
C1875      O1880   1.372       .  S
C1876      H1881   1.084       .  S
C1877      C1878   1.410       .  A
C1878      O1882   1.372       .  S
C1879      C1884   1.410       .  A
O1880      H1896   0.991       .  S
O1882      H1893   0.992       .  S
C1884      C1885   1.395       .  A
C1884      O1889   1.371       .  S
C1885      C1886   1.399       .  A
C1885      H1890   1.083       .  S
C1887      C1888   1.398       .  A
C1887      O1891   1.372       .  S
C1888      H1892   1.083       .  S
O1889      H1894   0.992       .  S
O1891      H1895   0.992       .  S
