geometry optimzed in LAMMPS
_audit_creation_date              2020-11-30 
_audit_creation_method            'lammps2cif' 
_symmetry_space_group_name_H-M    'P1' 
_symmetry_Int_Tables_number       1 
_symmetry_cell_setting            triclinic 
loop_ 
_symmetry_equiv_pos_as_xyz 
  x,y,z 
_cell_length_a                    42.10151398 
_cell_length_b                    42.266715681681596 
_cell_length_c                    38.989329168419054 
_cell_angle_alpha                 90.20977166912725 
_cell_angle_beta                  90.07982372199952 
_cell_angle_gamma                 92.57929175761772 
loop_ 
_atom_site_label 
_atom_site_type_symbol 
_atom_site_fract_x 
_atom_site_fract_y 
_atom_site_fract_z 
_atom_site_charge 
N1          N  0.43019469  0.01183810  0.46317432    -0.06400
N2          N  0.41200918  0.02174646  0.43818976    -0.58500
N3          N  0.43031574  0.48308074  0.04280600    -0.06100
N4          N  0.41177877  0.47252857  0.06789181    -0.60600
N5          N  0.43096423  0.01420080  0.04186626    -0.05700
N6          N  0.41283773  0.02532419  0.06636090    -0.58500
N7          N  0.42929174  0.48070110  0.46408975    -0.05400
N8          N  0.41046731  0.46887920  0.43966345    -0.61000
C9          C  0.39994912  0.49472467  0.42352026     0.95800
C10         C  0.40108347  0.99902918  0.08262312     0.95600
N11         N  0.01344928  0.43191860  0.04321297    -0.06600
N12         N  0.02489688  0.41435012  0.06777739    -0.59100
N13         N  0.48053639  0.42836356  0.46504150    -0.04700
N14         N  0.46875838  0.40929266  0.44081669    -0.60300
N15         N  0.01176808  0.42904955  0.46445140    -0.06600
N16         N  0.02181518  0.41048974  0.43978990    -0.59400
N17         N  0.48218518  0.43077715  0.04399559    -0.04300
N18         N  0.47178407  0.41214488  0.06916326    -0.60400
Mn19       Mn  0.45480854  0.45503317  0.00407505     1.18400
C20         C  0.99877738  0.40232846  0.08405125     0.97900
C21         C  0.49474055  0.39821289  0.42515445     0.98500
N22         N  0.48560431  0.06798518  0.03963564    -0.06600
N23         N  0.47554092  0.08595902  0.06480436    -0.62900
N24         N  0.01565384  0.06612543  0.46003638    -0.04300
N25         N  0.02683065  0.08399214  0.43469369    -0.63600
N26         N  0.48442407  0.06576551  0.46054913    -0.06100
N27         N  0.47378293  0.08347598  0.43555259    -0.63200
N28         N  0.01686040  0.06844186  0.03920965    -0.05000
N29         N  0.02862953  0.08666406  0.06418924    -0.63900
Mn30       Mn  0.45710472  0.04066129  0.50130184     1.10700
C31         C  0.00261175  0.09734690  0.08015413     0.99100
C32         C  0.50049364  0.09456374  0.41938226     0.99200
N33         N  0.06562611  0.48294118  0.46164497    -0.06100
N34         N  0.08262988  0.47135938  0.43655967    -0.61500
N35         N  0.06854604  0.01674362  0.03930031    -0.05500
N36         N  0.08784625  0.02879167  0.06314495    -0.58200
N37         N  0.06767100  0.48563324  0.04039499    -0.06800
N38         N  0.08633424  0.47593601  0.06509731    -0.61100
N39         N  0.06671197  0.01406364  0.46060816    -0.05800
N40         N  0.08456906  0.02425451  0.43476416    -0.58300
Mn41       Mn  0.04024849  0.45678742  0.00246692     1.20200
Mn42       Mn  0.04264991  0.04207255  0.49976284     1.10100
Cl43       Cl  0.99866778  0.99863159  0.00197693    -0.86200
C44         C  0.09414730  0.49732983  0.41976910     0.96100
C45         C  0.09884495  0.00311734  0.07912417     0.95900
N46         N  0.50235666  0.29760123  0.25177017    -0.36900
N47         N  0.49872123  0.24893575  0.30472228    -0.57400
N48         N  0.50343931  0.19998783  0.25209691    -0.36900
N49         N  0.50243263  0.24835156  0.19908533    -0.57400
C50         C  0.49447908  0.31502612  0.27942701     0.26700
C51         C  0.49586162  0.31461248  0.22347096     0.26700
C52         C  0.49550714  0.18221568  0.27983267     0.26700
C53         C  0.49727729  0.18188714  0.22394724     0.26700
C54         C  0.50308659  0.27491873  0.32479399     0.35300
C55         C  0.50356610  0.22368422  0.32495134     0.35300
C56         C  0.50800251  0.27416849  0.17926904     0.35300
C57         C  0.50874569  0.22294187  0.17951658     0.35300
C58         C  0.48327488  0.34368531  0.26862385    -0.22200
C59         C  0.48404656  0.34338975  0.23330682    -0.22200
C60         C  0.48450682  0.15233819  0.26922444    -0.22200
C61         C  0.48559798  0.15213978  0.23393741    -0.22200
C62         C  0.51032815  0.26611382  0.35801681    -0.23200
C63         C  0.51072974  0.23364796  0.35808960    -0.23200
C64         C  0.51779712  0.26511830  0.14689175    -0.23200
C65         C  0.51821545  0.23263536  0.14703169    -0.23200
C66         C  0.49856491  0.30633392  0.31412804    -0.18600
C67         C  0.50168747  0.30550370  0.18910963    -0.18600
C68         C  0.50321878  0.19107308  0.18959818    -0.18600
C69         C  0.49942382  0.19169799  0.31447015    -0.18600
H70         H  0.47540299  0.36284364  0.28453526     0.14300
H71         H  0.47686104  0.36230211  0.21676195     0.14300
H72         H  0.47656123  0.13269331  0.28526170     0.14300
H73         H  0.47866798  0.13230700  0.21751273     0.14300
H74         H  0.51459253  0.28146094  0.37998435     0.12600
H75         H  0.51527525  0.21902081  0.38013039     0.12600
H76         H  0.52333625  0.28029898  0.12521459     0.12600
H77         H  0.52413466  0.21780485  0.12548471     0.12600
H78         H  0.51318651  0.27603926  0.25226114     0.25900
H79         H  0.51413415  0.22258763  0.25246327     0.25900
N80         N  0.19934676  0.49659612  0.25105977    -0.36900
N81         N  0.24945309  0.50250533  0.19951138    -0.57400
N82         N  0.29732473  0.49723582  0.25324202    -0.36900
N83         N  0.24741937  0.49600558  0.30501653    -0.57400
C84         C  0.18236377  0.50447476  0.22314672     0.26700
C85         C  0.18132985  0.50219717  0.27892884     0.26700
C86         C  0.31612282  0.50502365  0.22617710     0.26700
C87         C  0.31504266  0.50170965  0.28195442     0.26700
C88         C  0.22398545  0.49829879  0.17858372     0.35300
C89         C  0.27541296  0.49912054  0.17972365     0.35300
C90         C  0.22110315  0.49128800  0.32443432     0.35300
C91         C  0.27253173  0.49103558  0.32560237     0.35300
C92         C  0.15300268  0.51472375  0.23331172    -0.22200
C93         C  0.15237009  0.51336043  0.26854343    -0.22200
C94         C  0.34632067  0.51412702  0.23776481    -0.22200
C95         C  0.34563832  0.51207719  0.27297281    -0.22200
C96         C  0.23381322  0.49269845  0.14528791    -0.23200
C97         C  0.26640459  0.49329563  0.14599177    -0.23200
C98         C  0.22953909  0.48356612  0.35765920    -0.23200
C99         C  0.26213556  0.48346462  0.35841255    -0.23200
C100        C  0.19203908  0.50120934  0.18867615    -0.18600
C101        C  0.18976185  0.49643096  0.31339511    -0.18600
C102        C  0.30476999  0.49565378  0.31595382    -0.18600
C103        C  0.30721916  0.50267185  0.19124358    -0.18600
H104        H  0.13400537  0.52239829  0.21702482     0.14300
H105        H  0.13276574  0.51981707  0.28467155     0.14300
H106        H  0.36675300  0.52143553  0.22243447     0.14300
H107        H  0.36547369  0.51753804  0.29000513     0.14300
H108        H  0.21905703  0.48881276  0.12277775     0.12600
H109        H  0.28171162  0.48993715  0.12412088     0.12600
H110        H  0.21387800  0.47915081  0.37927806     0.12600
H111        H  0.27654690  0.47891769  0.38071716     0.12600
H112        H  0.22124318  0.48637407  0.25093206     0.25900
H113        H  0.27423225  0.48782104  0.25204815     0.25900
C114        C  0.12476614  0.47657733  0.12761560    -0.20600
C115        C  0.12223714  0.00406533  0.10778031    -0.07100
C116        C  0.14258380  0.03093301  0.11530537     0.13700
C117        C  0.16485278  0.02925889  0.14202231    -0.20600
C118        C  0.16732632  0.50168306  0.16145518    -0.07200
C119        C  0.14692026  0.47504133  0.15432757     0.13700
C120        C  0.14812271  0.44446852  0.17399202    -0.24000
H121        H  0.10932973  0.45591560  0.12227287     0.15000
H122        H  0.18068833  0.04953532  0.14775454     0.15000
C123        C  0.14178061  0.06122305  0.09509948    -0.23900
H124        H  0.15317387  0.42487343  0.15604405     0.05200
H125        H  0.12474594  0.93919561  0.18640720     0.08500
H126        H  0.16665856  0.44507297  0.19420489     0.08500
H127        H  0.11832482  0.07182857  0.09818877     0.08400
H128        H  0.14634303  0.55640621  0.06759450     0.08400
H129        H  0.16015565  0.07908915  0.10400845     0.05200
C130        C  0.14333677  0.47099284  0.34349972    -0.20600
C131        C  0.16441160  0.49734803  0.33978545    -0.07100
C132        C  0.16120222  0.02414778  0.36089758     0.13700
C133        C  0.13760848  0.02355586  0.38620803    -0.20600
C134        C  0.11714893  0.49675287  0.39103348    -0.07200
C135        C  0.11965522  0.47027123  0.36886168     0.13700
C136        C  0.09723369  0.44148913  0.37105471    -0.24000
H137        H  0.14570752  0.45078939  0.32663260     0.15000
H138        H  0.13561165  0.04400565  0.40278193     0.15000
C139        C  0.18256621  0.05342807  0.35655009    -0.23900
H140        H  0.10136394  0.42433106  0.35005283     0.05200
H141        H  0.07225813  0.44868773  0.36900313     0.08500
H142        H  0.10073421  0.42896412  0.39562629     0.08500
H143        H  0.18027747  0.06257791  0.33004585     0.08400
H144        H  0.20767026  0.04780892  0.36134021     0.08400
H145        H  0.17634497  0.07250591  0.37467378     0.05200
C146        C  0.36436422  0.02832881  0.11993801    -0.20600
C147        C  0.37802036  0.99946846  0.11162066    -0.07100
C148        C  0.36906791  0.47208620  0.13100394     0.13700
C149        C  0.34675217  0.47439553  0.15749978    -0.20600
C150        C  0.33279130  0.50300427  0.16500874    -0.07200
C151        C  0.34182960  0.03040889  0.14624735     0.13700
C152        C  0.32807630  0.06210550  0.15322712    -0.24000
H153        H  0.37093732  0.04950688  0.10553835     0.15000
H154        H  0.33948425  0.45351155  0.17208157     0.15000
C155        C  0.38251218  0.44018440  0.12426861    -0.23900
H156        H  0.31562253  0.07019014  0.12994432     0.05200
H157        H  0.34752728  0.57970196  0.15972594     0.08500
H158        H  0.31090129  0.06148798  0.17476188     0.08500
H159        H  0.40880485  0.44185520  0.12678233     0.08400
H160        H  0.37550257  0.93169098  0.09816535     0.08400
H161        H  0.37340081  0.42203199  0.14276140     0.05200
C162        C  0.35901028  0.02146836  0.38990268    -0.20600
C163        C  0.37612125  0.49409831  0.39531567    -0.07100
C164        C  0.36992494  0.46733472  0.37385209     0.13700
C165        C  0.34657773  0.46866389  0.34816479    -0.20600
C166        C  0.32928473  0.49586473  0.34340588    -0.07200
C167        C  0.33568982  0.02268776  0.36435294     0.13700
C168        C  0.31852283  0.05301552  0.36035904    -0.24000
H169        H  0.36354708  0.04215358  0.40599683     0.15000
H170        H  0.34162996  0.44832317  0.33167394     0.15000
C171        C  0.38804940  0.43753918  0.37714460    -0.23900
H172        H  0.33602822  0.07276760  0.35484028     0.05200
H173        H  0.30590379  0.55830660  0.38455937     0.08500
H174        H  0.30081382  0.05205334  0.33929201     0.08500
H175        H  0.38292197  0.42621312  0.40227700     0.08400
H176        H  0.41397149  0.94322767  0.37464395     0.08400
H177        H  0.38121810  0.41993150  0.35692477     0.05200
C178        C  0.02820716  0.14670408  0.15888530    -0.20600
C179        C  0.50227622  0.16611565  0.16244022    -0.07100
C180        C  0.47605007  0.16190743  0.14006923     0.13700
C181        C  0.47680694  0.13903964  0.11391156    -0.20600
C182        C  0.00323693  0.12025233  0.10932840    -0.07200
C183        C  0.02911786  0.12383804  0.13261505     0.13700
C184        C  0.05750073  0.10341592  0.13055664    -0.24000
H185        H  0.04801508  0.14980475  0.17655480     0.15000
H186        H  0.45675190  0.13623997  0.09654499     0.15000
C187        C  0.44713654  0.18137657  0.14399729    -0.23900
H188        H  0.07432712  0.10819948  0.15212234     0.05200
H189        H  0.07070464  0.10829196  0.10641476     0.08500
H190        H  0.04960396  0.07801317  0.13163999     0.08500
H191        H  0.45366750  0.20684329  0.14021683     0.08400
H192        H  0.43698183  0.17794338  0.17005666     0.08400
H193        H  0.42840445  0.17447033  0.12497364     0.05200
C194        C  0.02572077  0.14798294  0.34421664    -0.20600
C195        C  0.49912196  0.16652928  0.34112768    -0.07100
C196        C  0.47261943  0.16047162  0.36257789     0.13700
C197        C  0.47371306  0.13652480  0.38733839    -0.20600
C198        C  0.50067743  0.11837421  0.39130442    -0.07200
C199        C  0.02691890  0.12393303  0.36893351     0.13700
C200        C  0.05597603  0.10436480  0.37015313    -0.24000
H201        H  0.04571892  0.15249922  0.32716149     0.15000
H202        H  0.45343308  0.13231705  0.40405087     0.15000
C203        C  0.44300940  0.17893731  0.35901866    -0.23900
H204        H  0.07295898  0.11076819  0.34925266     0.05200
H205        H  0.04889884  0.07887373  0.36717566     0.08500
H206        H  0.06876211  0.10836218  0.39478850     0.08500
H207        H  0.43344395  0.17618545  0.33257279     0.08400
H208        H  0.44850008  0.20439806  0.36431579     0.08400
H209        H  0.42418975  0.17057965  0.37720720     0.05200
C210        C  0.47454968  0.35555158  0.11426030    -0.20600
C211        C  0.99967710  0.37847252  0.11190300    -0.07100
C212        C  0.02536918  0.37744897  0.13543192     0.13700
C213        C  0.02530881  0.35339538  0.16021596    -0.20600
C214        C  0.50052547  0.33019433  0.16196424    -0.07200
C215        C  0.47477400  0.33130621  0.13880071     0.13700
C216        C  0.44732710  0.30719138  0.14022057    -0.24000
H217        H  0.45489325  0.35619636  0.09633565     0.15000
H218        H  0.04478113  0.35253887  0.17836538     0.15000
C219        C  0.05257893  0.40193402  0.13532934    -0.23900
H220        H  0.42871454  0.31218886  0.12102027     0.05200
H221        H  0.43630878  0.30745335  0.16606388     0.08500
H222        H  0.45569257  0.28317878  0.13479502     0.08500
H223        H  0.04329269  0.42603154  0.13756368     0.08400
H224        H  0.06657741  0.40004019  0.11139046     0.08400
H225        H  0.06915513  0.39867586  0.15709729     0.05200
C226        C  0.02262860  0.37176570  0.37751922    -0.20600
C227        C  0.49422766  0.37530361  0.39589116    -0.07100
C228        C  0.46679959  0.35646626  0.38625284     0.13700
C229        C  0.46877448  0.33472853  0.35901247    -0.20600
C230        C  0.49722058  0.33129149  0.34109751    -0.07200
C231        C  0.02440326  0.35008645  0.35029620     0.13700
C232        C  0.05542730  0.34681991  0.33170766    -0.24000
H233        H  0.04372239  0.38598160  0.38450643     0.15000
H234        H  0.44811350  0.31992542  0.35184295     0.15000
C235        C  0.43554779  0.35825058  0.40480285    -0.23900
H236        H  0.07449143  0.36307872  0.34228134     0.05200
H237        H  0.05235977  0.35246060  0.30414759     0.08500
H238        H  0.06323593  0.32218251  0.33413497     0.08500
H239        H  0.42626896  0.38224783  0.40196083     0.08400
H240        H  0.43875369  0.35269270  0.43236618     0.08400
H241        H  0.41724896  0.34107955  0.39431666     0.05200
N242        N  0.43019478  0.01184398  0.96317676    -0.06400
N243        N  0.41200805  0.02175252  0.93819308    -0.58500
N244        N  0.43032230  0.48307768  0.54280754    -0.06100
N245        N  0.41178727  0.47252357  0.56789374    -0.60600
N246        N  0.43096416  0.01419579  0.54186437    -0.05700
N247        N  0.41283821  0.02531763  0.56636043    -0.58500
N248        N  0.42928978  0.48070458  0.96408825    -0.05400
N249        N  0.41046426  0.46888319  0.93966283    -0.61000
C250        C  0.39994652  0.49472853  0.92351914     0.95800
C251        C  0.40108600  0.99902148  0.58262235     0.95600
N252        N  0.01345368  0.43192095  0.54321218    -0.06600
N253        N  0.02490159  0.41435462  0.56777864    -0.59100
N254        N  0.48053315  0.42836331  0.96504240    -0.04700
N255        N  0.46875580  0.40929127  0.94081820    -0.60300
N256        N  0.01176556  0.42904857  0.96445347    -0.06600
N257        N  0.02181264  0.41048692  0.93979360    -0.59400
N258        N  0.48219319  0.43077799  0.54399472    -0.04300
N259        N  0.47179365  0.41214724  0.56916422    -0.60400
Mn260      Mn  0.45481349  0.45503173  0.50407542     1.18400
C261        C  0.99878197  0.40233322  0.58405301     0.97900
C262        C  0.49473812  0.39820899  0.92515843     0.98500
N263        N  0.48560084  0.06798301  0.53963198    -0.06600
N264        N  0.47553606  0.08595842  0.56479861    -0.62900
N265        N  0.01565689  0.06612347  0.96004309    -0.04300
N266        N  0.02683598  0.08399035  0.93470170    -0.63600
N267        N  0.48442744  0.06576958  0.96055214    -0.06100
N268        N  0.47378706  0.08348109  0.93555610    -0.63200
N269        N  0.01686040  0.06844611  0.53920308    -0.05000
N270        N  0.02862903  0.08667022  0.56418138    -0.63900
Mn271      Mn  0.45710665  0.04066565  0.00130449     1.10700
C272        C  0.00261082  0.09735233  0.58014634     0.99100
C273        C  0.50049798  0.09456848  0.91938577     0.99200
N274        N  0.06562745  0.48293732  0.96164999    -0.06100
N275        N  0.08263036  0.47135489  0.93656418    -0.61500
N276        N  0.06855083  0.01674913  0.53929200    -0.05500
N277        N  0.08785330  0.02879736  0.56313474    -0.58200
N278        N  0.06767358  0.48563843  0.54038822    -0.06800
N279        N  0.08633973  0.47594197  0.56508802    -0.61100
N280        N  0.06671372  0.01406001  0.96061660    -0.05800
N281        N  0.08457326  0.02425154  0.93477478    -0.58300
Mn282      Mn  0.04025060  0.45679031  0.50246346     1.20200
Mn283      Mn  0.04264966  0.04206839  0.99977014     1.10100
Cl284      Cl  0.99867000  0.99863401  0.50197276    -0.86200
C285        C  0.09414962  0.49732517  0.91977452     0.96100
C286        C  0.09885393  0.00312311  0.57911291     0.95900
N287        N  0.50235573  0.29760131  0.75176927    -0.36900
N288        N  0.49871486  0.24893368  0.80471867    -0.57400
N289        N  0.50343043  0.19998675  0.75209201    -0.36900
N290        N  0.50242846  0.24835281  0.69908228    -0.57400
C291        C  0.49447601  0.31502593  0.77942575     0.26700
C292        C  0.49586562  0.31461430  0.72346976     0.26700
C293        C  0.49549956  0.18221389  0.77982758     0.26700
C294        C  0.49726481  0.18188749  0.72394203     0.26700
C295        C  0.50307213  0.27491570  0.82479347     0.35300
C296        C  0.50355438  0.22368133  0.82494846     0.35300
C297        C  0.50800436  0.27416975  0.67926754     0.35300
C298        C  0.50873701  0.22294245  0.67951244     0.35300
C299        C  0.48327543  0.34368640  0.76862193    -0.22200
C300        C  0.48405155  0.34339211  0.73330497    -0.22200
C301        C  0.48449648  0.15233745  0.76921910    -0.22200
C302        C  0.48558394  0.15214053  0.73393185    -0.22200
C303        C  0.51030192  0.26610910  0.85801886    -0.23200
C304        C  0.51070549  0.23364360  0.85809012    -0.23200
C305        C  0.51779820  0.26511893  0.64689018    -0.23200
C306        C  0.51820963  0.23263557  0.64702839    -0.23200
C307        C  0.49855580  0.30633191  0.81412731    -0.18600
C308        C  0.50169421  0.30550596  0.68910892    -0.18600
C309        C  0.50320566  0.19107393  0.68959301    -0.18600
C310        C  0.49941808  0.19169523  0.81446498    -0.18600
H311        H  0.47540248  0.36284457  0.78453286     0.14300
H312        H  0.47686912  0.36230547  0.71675972     0.14300
H313        H  0.47655068  0.13269264  0.78525635     0.14300
H314        H  0.47865084  0.13230894  0.71750685     0.14300
H315        H  0.51455744  0.28145480  0.87998919     0.12600
H316        H  0.51524355  0.21901567  0.88013232     0.12600
H317        H  0.52334122  0.28029963  0.62521406     0.12600
H318        H  0.52412697  0.21780473  0.62548099     0.12600
H319        H  0.51318332  0.27603867  0.75226055     0.25900
H320        H  0.51412675  0.22258572  0.75245875     0.25900
N321        N  0.19934384  0.49659478  0.75105716    -0.36900
N322        N  0.24945105  0.50249578  0.69950707    -0.57400
N323        N  0.29732250  0.49722367  0.75323760    -0.36900
N324        N  0.24741679  0.49600197  0.80501353    -0.57400
C325        C  0.18236012  0.50447231  0.72314409     0.26700
C326        C  0.18132520  0.50219029  0.77892656     0.26700
C327        C  0.31612180  0.50500282  0.72617099     0.26700
C328        C  0.31504177  0.50169780  0.78194905     0.26700
C329        C  0.22398243  0.49829572  0.67857983     0.35300
C330        C  0.27540966  0.49910579  0.67971875     0.35300
C331        C  0.22110093  0.49128662  0.82443259     0.35300
C332        C  0.27252985  0.49103702  0.82560025     0.35300
C333        C  0.15299645  0.51471458  0.73330952    -0.22200
C334        C  0.15236312  0.51334818  0.76854120    -0.22200
C335        C  0.34632208  0.51409953  0.73775669    -0.22200
C336        C  0.34563976  0.51205549  0.77296499    -0.22200
C337        C  0.23380854  0.49269418  0.64528354    -0.23200
C338        C  0.26639969  0.49328369  0.64598686    -0.23200
C339        C  0.22953809  0.48357088  0.85765897    -0.23200
C340        C  0.26213455  0.48347201  0.85841223    -0.23200
C341        C  0.19203684  0.50121144  0.68867296    -0.18600
C342        C  0.18975856  0.49642575  0.81339321    -0.18600
C343        C  0.30476813  0.49565181  0.81595022    -0.18600
C344        C  0.30721646  0.50265129  0.69123789    -0.18600
H345        H  0.13399768  0.52238639  0.71702296     0.14300
H346        H  0.13275691  0.51979968  0.78466932     0.14300
H347        H  0.36675589  0.52140062  0.72242497     0.14300
H348        H  0.36547667  0.51751403  0.78999592     0.14300
H349        H  0.21905144  0.48881228  0.62277344     0.12600
H350        H  0.28170559  0.48992244  0.62411561     0.12600
H351        H  0.21387780  0.47915828  0.87927902     0.12600
H352        H  0.27654640  0.47892965  0.88071771     0.12600
H353        H  0.22124234  0.48637769  0.75092935     0.25900
H354        H  0.27422763  0.48781557  0.75204568     0.25900
C355        C  0.12477393  0.47658057  0.62760092    -0.20600
C356        C  0.12224557  0.00407047  0.60777027    -0.07100
C357        C  0.14258080  0.03094334  0.61530901     0.13700
C358        C  0.16484696  0.02926924  0.64202902    -0.20600
C359        C  0.16732509  0.50168794  0.66145128    -0.07200
C360        C  0.14692473  0.47504411  0.65431567     0.13700
C361        C  0.14812976  0.44446849  0.67397466    -0.24000
H362        H  0.10934169  0.45591705  0.62225277     0.15000
H363        H  0.18067418  0.04954953  0.64777128     0.15000
C364        C  0.14176767  0.06123967  0.59511554    -0.23900
H365        H  0.15318824  0.42487766  0.65602405     0.05200
H366        H  0.12476792  0.93917568  0.68637054     0.08500
H367        H  0.16666175  0.44507311  0.69419161     0.08500
H368        H  0.11830614  0.07183335  0.59820499     0.08400
H369        H  0.14634466  0.55642082  0.56759598     0.08400
H370        H  0.16013353  0.07911040  0.60403531     0.05200
C371        C  0.14332936  0.47099092  0.84349578    -0.20600
C372        C  0.16440896  0.49734312  0.83978495    -0.07100
C373        C  0.16120311  0.02414775  0.86090263     0.13700
C374        C  0.13761318  0.02355372  0.88621753    -0.20600
C375        C  0.11715006  0.49674780  0.89103765    -0.07200
C376        C  0.11964923  0.47026965  0.86885962     0.13700
C377        C  0.09722082  0.44149242  0.87104768    -0.24000
H378        H  0.14569491  0.45078975  0.82662427     0.15000
H379        H  0.13561931  0.04400177  0.90279455     0.15000
C380        C  0.18256508  0.05342925  0.85655326    -0.23900
H381        H  0.10134586  0.42433707  0.85004170     0.05200
H382        H  0.07224729  0.44869777  0.86899920     0.08500
H383        H  0.10071901  0.42896193  0.89561634     0.08500
H384        H  0.18027220  0.06257983  0.83004980     0.08400
H385        H  0.20767020  0.04781182  0.86133917     0.08400
H386        H  0.17634508  0.07250610  0.87467874     0.05200
C387        C  0.36437877  0.02832051  0.61995204    -0.20600
C388        C  0.37802321  0.99945773  0.61162024    -0.07100
C389        C  0.36906447  0.47207079  0.63099368     0.13700
C390        C  0.34674371  0.47437553  0.65748511    -0.20600
C391        C  0.33278777  0.50298490  0.66500229    -0.07200
C392        C  0.34184310  0.03039779  0.64626059     0.13700
C393        C  0.32810336  0.06209775  0.65325698    -0.24000
H394        H  0.37096209  0.04950306  0.60556462     0.15000
H395        H  0.33946952  0.45348817  0.67205818     0.15000
C396        C  0.38250537  0.44016863  0.62425119    -0.23900
H397        H  0.31565766  0.07020036  0.62997695     0.05200
H398        H  0.34754240  0.57968122  0.65975690     0.08500
H399        H  0.31092436  0.06147688  0.67478807     0.08500
H400        H  0.40879759  0.44183493  0.62677173     0.08400
H401        H  0.37548240  0.93168524  0.59813085     0.08400
H402        H  0.37338759  0.42201216  0.64273607     0.05200
C403        C  0.35901475  0.02147622  0.88989685    -0.20600
C404        C  0.37611861  0.49410138  0.89531395    -0.07100
C405        C  0.36991244  0.46733176  0.87386135     0.13700
C406        C  0.34656706  0.46866045  0.84817222    -0.20600
C407        C  0.32928300  0.49586530  0.84340238    -0.07200
C408        C  0.33569478  0.02269388  0.86434607     0.13700
C409        C  0.31853328  0.05302387  0.86034317    -0.24000
H410        H  0.36355634  0.04216505  0.90598430     0.15000
H411        H  0.34161260  0.44831553  0.83168932     0.15000
C412        C  0.38802289  0.43752870  0.87716836    -0.23900
H413        H  0.33604193  0.07277172  0.85481897     0.05200
H414        H  0.30591747  0.55832301  0.88453797     0.08500
H415        H  0.30082424  0.05205951  0.83927617     0.08500
H416        H  0.38288995  0.42621452  0.90230587     0.08400
H417        H  0.41395239  0.94321173  0.87466779     0.08400
H418        H  0.38118398  0.41991560  0.85695666     0.05200
C419        C  0.02820293  0.14670561  0.65888108    -0.20600
C420        C  0.50226411  0.16611661  0.66243492    -0.07100
C421        C  0.47603838  0.16190675  0.64006368     0.13700
C422        C  0.47679728  0.13903945  0.61390545    -0.20600
C423        C  0.00323500  0.12025725  0.60932109    -0.07200
C424        C  0.02911458  0.12384120  0.63260942     0.13700
C425        C  0.05749693  0.10341849  0.63055146    -0.24000
H426        H  0.04801016  0.14980494  0.67655171     0.15000
H427        H  0.45674232  0.13623809  0.59653898     0.15000
C428        C  0.44712350  0.18137379  0.64399205    -0.23900
H429        H  0.07432217  0.10820018  0.65211857     0.05200
H430        H  0.07070221  0.10829593  0.60641077     0.08500
H431        H  0.04959938  0.07801587  0.63163244     0.08500
H432        H  0.45365336  0.20684108  0.64021398     0.08400
H433        H  0.43696812  0.17793825  0.67005082     0.08400
H434        H  0.42839243  0.17446766  0.62496719     0.05200
C435        C  0.02574049  0.14799424  0.84423502    -0.20600
C436        C  0.49911890  0.16652613  0.84112176    -0.07100
C437        C  0.47261162  0.16045733  0.86256170     0.13700
C438        C  0.47370843  0.13651360  0.88732528    -0.20600
C439        C  0.50068143  0.11837752  0.89130567    -0.07200
C440        C  0.02693822  0.12394568  0.86895371     0.13700
C441        C  0.05600626  0.10439387  0.87019178    -0.24000
H442        H  0.04574581  0.15252107  0.82719224     0.15000
H443        H  0.45342368  0.13229712  0.90402896     0.15000
C444        C  0.44299403  0.17890934  0.85898906    -0.23900
H445        H  0.07299747  0.11080676  0.84930206     0.05200
H446        H  0.04894468  0.07889959  0.86720974     0.08500
H447        H  0.06877724  0.10839787  0.89483512     0.08500
H448        H  0.43343814  0.17615123  0.83253982     0.08400
H449        H  0.44847233  0.20437250  0.86428511     0.08400
H450        H  0.42417185  0.17054524  0.87717140     0.05200
C451        C  0.47455734  0.35555888  0.61426411    -0.20600
C452        C  0.99968052  0.37847758  0.61190540    -0.07100
C453        C  0.02537005  0.37745507  0.63543750     0.13700
C454        C  0.02530810  0.35340113  0.66022164    -0.20600
C455        C  0.50053457  0.33019702  0.66196379    -0.07200
C456        C  0.47478065  0.33131341  0.63880423     0.13700
C457        C  0.44733013  0.30720302  0.64022809    -0.24000
H458        H  0.45489877  0.35620681  0.59634252     0.15000
H459        H  0.04477871  0.35254537  0.67837326     0.15000
C460        C  0.05257849  0.40194154  0.63533780    -0.23900
H461        H  0.42871609  0.31220351  0.62103059     0.05200
H462        H  0.43631526  0.30746688  0.66607308     0.08500
H463        H  0.45569112  0.28318887  0.63480133     0.08500
H464        H  0.04329072  0.42603849  0.63757136     0.08400
H465        H  0.06657895  0.40004888  0.61140012     0.08400
H466        H  0.06915306  0.39868397  0.65710733     0.05200
C467        C  0.02262621  0.37176351  0.87752208    -0.20600
C468        C  0.49422503  0.37529821  0.89589580    -0.07100
C469        C  0.46679472  0.35646559  0.88625399     0.13700
C470        C  0.46876714  0.33473021  0.85901096    -0.20600
C471        C  0.49721345  0.33128930  0.84109767    -0.07200
C472        C  0.02440093  0.35008498  0.85029826     0.13700
C473        C  0.05542447  0.34682095  0.83170792    -0.24000
H474        H  0.04371951  0.38598051  0.88450850     0.15000
H475        H  0.44810409  0.31993133  0.85183853     0.15000
C476        C  0.43554288  0.35825188  0.90480354    -0.23900
H477        H  0.07448825  0.36308017  0.84228160     0.05200
H478        H  0.05235553  0.35246297  0.80414838     0.08500
H479        H  0.06323447  0.32218388  0.83413330     0.08500
H480        H  0.42626640  0.38225027  0.90196319     0.08400
H481        H  0.43874781  0.35269176  0.93236650     0.08400
H482        H  0.41724264  0.34108322  0.89431583     0.05200
N483        N  0.43019864  0.51184343  0.46317868    -0.06400
N484        N  0.41200890  0.52175160  0.43819763    -0.58500
N485        N  0.43031207  0.98307211  0.04280531    -0.06100
N486        N  0.41177399  0.97251644  0.06788860    -0.60600
N487        N  0.43097134  0.51420941  0.04186516    -0.05700
N488        N  0.41284842  0.52533655  0.06636079    -0.58500
N489        N  0.42928956  0.98069573  0.46408375    -0.05400
N490        N  0.41047062  0.96887405  0.43965244    -0.61000
C491        C  0.39995389  0.99471973  0.42350828     0.95800
C492        C  0.40109318  0.49904369  0.08262595     0.95600
N493        N  0.01345083  0.93191629  0.04321140    -0.06600
N494        N  0.02490102  0.91434833  0.06777477    -0.59100
N495        N  0.48053582  0.92836313  0.46503602    -0.04700
N496        N  0.46876005  0.90929541  0.44080737    -0.60300
N497        N  0.01177254  0.92905377  0.46444759    -0.06600
N498        N  0.02182223  0.91049696  0.43978473    -0.59400
N499        N  0.48218756  0.93077155  0.04399282    -0.04300
N500        N  0.47179060  0.91213541  0.06915944    -0.60400
Mn501      Mn  0.45480801  0.95502930  0.00407313     1.18400
C502        C  0.99878339  0.90232187  0.08404811     0.97900
C503        C  0.49474346  0.89821906  0.42514455     0.98500
N504        N  0.48561543  0.56798810  0.03963004    -0.06600
N505        N  0.47555414  0.58596551  0.06479655    -0.62900
N506        N  0.01565981  0.56612055  0.46003296    -0.04300
N507        N  0.02683663  0.58398603  0.43468930    -0.63600
N508        N  0.48443348  0.56576565  0.46054653    -0.06100
N509        N  0.47379066  0.58347541  0.43555065    -0.63200
N510        N  0.01687211  0.56844316  0.03920354    -0.05000
N511        N  0.02864239  0.58666734  0.06418097    -0.63900
Mn512      Mn  0.45711519  0.54066636  0.50130188     1.10700
C513        C  0.00262517  0.59735359  0.08014414     0.99100
C514        C  0.50049997  0.59456253  0.41937782     0.99200
N515        N  0.06562249  0.98294666  0.46164628    -0.06100
N516        N  0.08262485  0.97136392  0.43656086    -0.61500
N517        N  0.06855224  0.51673994  0.03929795    -0.05500
N518        N  0.08785073  0.52878841  0.06314377    -0.58200
N519        N  0.06766598  0.98563689  0.04039553    -0.06800
N520        N  0.08633129  0.97593894  0.06509503    -0.61100
N521        N  0.06671624  0.51405824  0.46060741    -0.05800
N522        N  0.08457449  0.52424996  0.43476475    -0.58300
Mn523      Mn  0.04024703  0.95679039  0.00246740     1.20200
Mn524      Mn  0.04265502  0.54206833  0.49976024     1.10100
Cl525      Cl  0.99867259  0.49863236  0.00197499    -0.86200
C526        C  0.09414119  0.99733354  0.41976916     0.96100
C527        C  0.09884774  0.50311501  0.07912614     0.95900
N528        N  0.50237543  0.79759847  0.25177095    -0.36900
N529        N  0.49872101  0.74893103  0.30471958    -0.57400
N530        N  0.50343337  0.69998482  0.25209192    -0.36900
N531        N  0.50244872  0.74835095  0.19908409    -0.57400
C532        C  0.49449493  0.81502310  0.27942710     0.26700
C533        C  0.49588626  0.81461185  0.22347133     0.26700
C534        C  0.49549109  0.68221401  0.27982543     0.26700
C535        C  0.49726685  0.68188786  0.22394054     0.26700
C536        C  0.50308591  0.77491207  0.32479429     0.35300
C537        C  0.50355768  0.72367721  0.32494789     0.35300
C538        C  0.50802423  0.77416749  0.17926901     0.35300
C539        C  0.50875479  0.72294052  0.17951362     0.35300
C540        C  0.48329536  0.84368389  0.26862311    -0.22200
C541        C  0.48407255  0.84338979  0.23330632    -0.22200
C542        C  0.48447775  0.65234172  0.26921427    -0.22200
C543        C  0.48557239  0.65214482  0.23392716    -0.22200
C544        C  0.51031780  0.76610372  0.35801853    -0.23200
C545        C  0.51071540  0.73363762  0.35808876    -0.23200
C546        C  0.51781509  0.76511640  0.14689066    -0.23200
C547        C  0.51822540  0.73263311  0.14702874    -0.23200
C548        C  0.49857320  0.80632885  0.31412860    -0.18600
C549        C  0.50171394  0.80550332  0.18911039    -0.18600
C550        C  0.50321986  0.69107272  0.18959367    -0.18600
C551        C  0.49941217  0.69169226  0.31446330    -0.18600
H552        H  0.47542203  0.86284208  0.28453375     0.14300
H553        H  0.47689075  0.86230333  0.21676098     0.14300
H554        H  0.47652191  0.63269933  0.28524980     0.14300
H555        H  0.47863543  0.63231587  0.21750009     0.14300
H556        H  0.51457866  0.78144869  0.37998845     0.12600
H557        H  0.51525327  0.71900817  0.38012983     0.12600
H558        H  0.52335607  0.78029684  0.12521379     0.12600
H559        H  0.52413925  0.71780202  0.12548029     0.12600
H560        H  0.51320233  0.77603538  0.25226290     0.25900
H561        H  0.51413943  0.72257956  0.25246138     0.25900
N562        N  0.19933796  0.99658584  0.25106238    -0.36900
N563        N  0.24944291  0.00248818  0.19951210    -0.57400
N564        N  0.29731680  0.99721975  0.25324045    -0.36900
N565        N  0.24741405  0.99599899  0.30501764    -0.57400
C566        C  0.18235252  0.00445923  0.22314910     0.26700
C567        C  0.18132145  0.00218670  0.27893178     0.26700
C568        C  0.31611429  0.00500444  0.22617405     0.26700
C569        C  0.31503654  0.00169431  0.28195145     0.26700
C570        C  0.22397463  0.99828619  0.17858466     0.35300
C571        C  0.27540195  0.99910546  0.17972255     0.35300
C572        C  0.22109847  0.99128481  0.32443712     0.35300
C573        C  0.27252693  0.99102873  0.32560279     0.35300
C574        C  0.15298962  0.01470350  0.23331440    -0.22200
C575        C  0.15235888  0.01334346  0.26854633    -0.22200
C576        C  0.34631335  0.01410563  0.23775939    -0.22200
C577        C  0.34563250  0.01205844  0.27296739    -0.22200
C578        C  0.23380141  0.99269100  0.14528735    -0.23200
C579        C  0.26639249  0.99328697  0.14598991    -0.23200
C580        C  0.22953543  0.98356490  0.35766233    -0.23200
C581        C  0.26213180  0.98346115  0.35841416    -0.23200
C582        C  0.19202844  0.00119615  0.18867818    -0.18600
C583        C  0.18975670  0.99642688  0.31339867    -0.18600
C584        C  0.30476501  0.99564286  0.31595192    -0.18600
C585        C  0.30720861  0.00265280  0.19124131    -0.18600
H586        H  0.13399017  0.02237364  0.21702772     0.14300
H587        H  0.13275403  0.01979848  0.28467461     0.14300
H588        H  0.36674548  0.02141170  0.22242756     0.14300
H589        H  0.36546908  0.01751924  0.28999809     0.14300
H590        H  0.21904480  0.98880970  0.12277680     0.12600
H591        H  0.28169862  0.98993215  0.12411750     0.12600
H592        H  0.21387506  0.97915165  0.37928223     0.12600
H593        H  0.27654379  0.97891437  0.38071830     0.12600
H594        H  0.22123640  0.98636873  0.25093511     0.25900
H595        H  0.27422414  0.98780725  0.25204869     0.25900
C596        C  0.12475354  0.97657748  0.12761596    -0.20600
C597        C  0.12224091  0.50406583  0.10778258    -0.07100
C598        C  0.14257966  0.53093884  0.11531132     0.13700
C599        C  0.16485260  0.52926781  0.14202486    -0.20600
C600        C  0.16731692  0.00167487  0.16145647    -0.07200
C601        C  0.14690593  0.97503699  0.15432844     0.13700
C602        C  0.14810206  0.94446293  0.17399150    -0.24000
H603        H  0.10931208  0.95591918  0.12227416     0.15000
H604        H  0.18068259  0.54954806  0.14775866     0.15000
C605        C  0.14176287  0.56123299  0.09511439    -0.23900
H606        H  0.15314939  0.92486744  0.15604245     0.05200
H607        H  0.12476755  0.43919723  0.18640829     0.08500
H608        H  0.16663789  0.94506285  0.19420422     0.08500
H609        H  0.11830221  0.57182751  0.09820835     0.08400
H610        H  0.14635942  0.05638721  0.06758117     0.08400
H611        H  0.16013071  0.57910454  0.10402763     0.05200
C612        C  0.14333072  0.97099193  0.34350306    -0.20600
C613        C  0.16440791  0.99734542  0.33979019    -0.07100
C614        C  0.16120212  0.52415135  0.36089031     0.13700
C615        C  0.13760975  0.52355739  0.38620269    -0.20600
C616        C  0.11714382  0.99675408  0.39103556    -0.07200
C617        C  0.11964900  0.97027169  0.36886448     0.13700
C618        C  0.09722681  0.94148997  0.37105801    -0.24000
H619        H  0.14569991  0.95078868  0.32663528     0.15000
H620        H  0.13561091  0.54400781  0.40277520     0.15000
C621        C  0.18256098  0.55343460  0.35653773    -0.23900
H622        H  0.10135732  0.92433090  0.35005712     0.05200
H623        H  0.07225146  0.94868883  0.36900544     0.08500
H624        H  0.10072652  0.92896565  0.39563020     0.08500
H625        H  0.18026869  0.56258140  0.33003257     0.08400
H626        H  0.20766659  0.54781994  0.36132605     0.08400
H627        H  0.17633781  0.57251305  0.37465972     0.05200
C628        C  0.36435731  0.52834229  0.11992182    -0.20600
C629        C  0.37803299  0.49948694  0.11162542    -0.07100
C630        C  0.36903224  0.97205978  0.13097606     0.13700
C631        C  0.34671852  0.97436838  0.15747404    -0.20600
C632        C  0.33277928  0.00298341  0.16500513    -0.07200
C633        C  0.34182309  0.53042369  0.14623144     0.13700
C634        C  0.32805106  0.56211515  0.15319132    -0.24000
H635        H  0.37091463  0.54951469  0.10550536     0.15000
H636        H  0.33943459  0.95347945  0.17203962     0.15000
C637        C  0.38244666  0.94014948  0.12421170    -0.23900
H638        H  0.31558829  0.57017820  0.12990483     0.05200
H639        H  0.34756171  0.07967715  0.15977672     0.08500
H640        H  0.31087970  0.56150004  0.17472949     0.08500
H641        H  0.40873916  0.94179288  0.12673281     0.08400
H642        H  0.37557041  0.43169700  0.09823220     0.08400
H643        H  0.37331421  0.92198888  0.14268426     0.05200
C644        C  0.35900908  0.52147537  0.38991130    -0.20600
C645        C  0.37612693  0.99409352  0.39530292    -0.07100
C646        C  0.36993385  0.96733141  0.37383650     0.13700
C647        C  0.34658133  0.96865756  0.34815456    -0.20600
C648        C  0.32928187  0.99585513  0.34340183    -0.07200
C649        C  0.33569216  0.52269684  0.36435794     0.13700
C650        C  0.31852746  0.55302572  0.36036203    -0.24000
H651        H  0.36354682  0.54216085  0.40600482     0.15000
H652        H  0.34163527  0.94831746  0.33166232     0.15000
C653        C  0.38806798  0.93754127  0.37711985    -0.23900
H654        H  0.33603457  0.57277699  0.35484598     0.05200
H655        H  0.30590175  0.05829609  0.38455806     0.08500
H656        H  0.30082086  0.55206473  0.33929262     0.08500
H657        H  0.38294670  0.92620930  0.40225039     0.08400
H658        H  0.41395456  0.44321714  0.37467094     0.08400
H659        H  0.38123974  0.91993545  0.35689708     0.05200
C660        C  0.02821710  0.64671808  0.15887194    -0.20600
C661        C  0.50228166  0.66611622  0.16243567    -0.07100
C662        C  0.47605204  0.66189828  0.14007165     0.13700
C663        C  0.47681296  0.63903313  0.11391200    -0.20600
C664        C  0.00324943  0.62025991  0.10931759    -0.07200
C665        C  0.02913547  0.62385802  0.13259633     0.13700
C666        C  0.05753363  0.60345781  0.13052223    -0.24000
H667        H  0.04802810  0.64982789  0.17653615     0.15000
H668        H  0.45675326  0.63622432  0.09655287     0.15000
C669        C  0.44713212  0.68135682  0.14400742    -0.23900
H670        H  0.07436549  0.60825135  0.15208083     0.05200
H671        H  0.07072472  0.60834656  0.10637488     0.08500
H672        H  0.04965621  0.57804993  0.13160539     0.08500
H673        H  0.45365531  0.70682589  0.14023113     0.08400
H674        H  0.43698149  0.67791645  0.17006758     0.08400
H675        H  0.42839988  0.67444769  0.12498500     0.05200
C676        C  0.02572499  0.64798049  0.34421527    -0.20600
C677        C  0.49911307  0.66652110  0.34111744    -0.07100
C678        C  0.47261301  0.66046174  0.36257030     0.13700
C679        C  0.47371207  0.63651749  0.38733289    -0.20600
C680        C  0.50067979  0.61837143  0.39129873    -0.07200
C681        C  0.02692583  0.62393160  0.36893296     0.13700
C682        C  0.05598870  0.60437179  0.37015900    -0.24000
H683        H  0.04572489  0.65250215  0.32716384     0.15000
H684        H  0.45343370  0.63230844  0.40404728     0.15000
C685        C  0.44300028  0.67892348  0.35901220    -0.23900
H686        H  0.07297356  0.61077938  0.34926167     0.05200
H687        H  0.04891921  0.57887897  0.36718098     0.08500
H688        H  0.06876967  0.60837331  0.39479676     0.08500
H689        H  0.43343287  0.67616817  0.33256742     0.08400
H690        H  0.44848820  0.70438526  0.36430613     0.08400
H691        H  0.42418311  0.67056519  0.37720332     0.05200
C692        C  0.47456205  0.85554984  0.11426729    -0.20600
C693        C  0.99968708  0.87846666  0.11190145    -0.07100
C694        C  0.02538658  0.87743782  0.13542107     0.13700
C695        C  0.02532688  0.85338713  0.16020870    -0.20600
C696        C  0.50054885  0.83019243  0.16196389    -0.07200
C697        C  0.47479022  0.83130690  0.13881027     0.13700
C698        C  0.44733998  0.80719675  0.14024365    -0.24000
H699        H  0.45489944  0.85619662  0.09635079     0.15000
H700        H  0.04480447  0.85252691  0.17835108     0.15000
C701        C  0.05260528  0.90191279  0.13530391    -0.23900
H702        H  0.42872218  0.81219485  0.12104963     0.05200
H703        H  0.43633029  0.80746386  0.16609114     0.08500
H704        H  0.45569999  0.78318190  0.13481838     0.08500
H705        H  0.04332961  0.92601473  0.13753846     0.08400
H706        H  0.06659440  0.90000967  0.11135962     0.08400
H707        H  0.06918776  0.89865137  0.15706555     0.05200
C708        C  0.02264506  0.87175861  0.37752564    -0.20600
C709        C  0.49423282  0.87530816  0.39588248    -0.07100
C710        C  0.46680122  0.85648093  0.38623319     0.13700
C711        C  0.46877793  0.83473956  0.35899657    -0.20600
C712        C  0.49722995  0.83128680  0.34109779    -0.07200
C713        C  0.02442274  0.85007309  0.35030869     0.13700
C714        C  0.05545240  0.84679199  0.33173534    -0.24000
H715        H  0.04374069  0.88596902  0.38451884     0.15000
H716        H  0.44811347  0.81994553  0.35181766     0.15000
C717        C  0.43554299  0.85827948  0.40476760    -0.23900
H718        H  0.07451773  0.86304690  0.34231328     0.05200
H719        H  0.05239749  0.85242753  0.30417224     0.08500
H720        H  0.06325144  0.82215210  0.33417321     0.08500
H721        H  0.42627704  0.88228144  0.40192068     0.08400
H722        H  0.43873443  0.85271955  0.43233251     0.08400
H723        H  0.41724088  0.84111669  0.39427274     0.05200
N724        N  0.43019799  0.51184694  0.96317650    -0.06400
N725        N  0.41200792  0.52175541  0.93819560    -0.58500
N726        N  0.43031364  0.98306720  0.54280269    -0.06100
N727        N  0.41177746  0.97251000  0.56788654    -0.60600
N728        N  0.43097572  0.51420624  0.54186758    -0.05700
N729        N  0.41285289  0.52533143  0.56636449    -0.58500
N730        N  0.42928893  0.98070158  0.96408658    -0.05400
N731        N  0.41046846  0.96888024  0.93965668    -0.61000
C732        C  0.39995130  0.99472570  0.92351269     0.95800
C733        C  0.40110020  0.49903716  0.58262923     0.95600
N734        N  0.01345690  0.93192017  0.54320858    -0.06600
N735        N  0.02490794  0.91435424  0.56777340    -0.59100
N736        N  0.48053439  0.92836575  0.96503773    -0.04700
N737        N  0.46875876  0.90929649  0.94081025    -0.60300
N738        N  0.01176916  0.92905155  0.96445144    -0.06600
N739        N  0.02181928  0.91049347  0.93978996    -0.59400
N740        N  0.48219064  0.93077075  0.54399163    -0.04300
N741        N  0.47179414  0.91213798  0.56916118    -0.60400
Mn742      Mn  0.45480965  0.95502556  0.50407104     1.18400
C743        C  0.99879074  0.90232813  0.58404810     0.97900
C744        C  0.49474222  0.89821806  0.92514916     0.98500
N745        N  0.48561589  0.56798788  0.53962799    -0.06600
N746        N  0.47555396  0.58596604  0.56479341    -0.62900
N747        N  0.01566652  0.56612109  0.96003788    -0.04300
N748        N  0.02684526  0.58398747  0.93469576    -0.63600
N749        N  0.48443733  0.56576669  0.96054767    -0.06100
N750        N  0.47379751  0.58347760  0.93555121    -0.63200
N751        N  0.01686880  0.56844557  0.53919834    -0.05000
N752        N  0.02863962  0.58667160  0.56417385    -0.63900
Mn753      Mn  0.45711483  0.54066846  0.00130132     1.10700
C754        C  0.00262301  0.59735751  0.58013843     0.99100
C755        C  0.50050857  0.59456395  0.91938082     0.99200
N756        N  0.06562320  0.98294297  0.96165335    -0.06100
N757        N  0.08262736  0.97136083  0.93656883    -0.61500
N758        N  0.06855360  0.51674514  0.53929094    -0.05500
N759        N  0.08785441  0.52879435  0.56313440    -0.58200
N760        N  0.06767148  0.98564235  0.54038731    -0.06800
N761        N  0.08633935  0.97594477  0.56508461    -0.61100
N762        N  0.06671977  0.51405444  0.96061351    -0.05800
N763        N  0.08457876  0.52424561  0.93477118    -0.58300
Mn764      Mn  0.04025066  0.95679419  0.50246219     1.20200
Mn765      Mn  0.04265826  0.54206545  0.99976592     1.10100
Cl766      Cl  0.99867214  0.49863280  0.50197238    -0.86200
C767        C  0.09414582  0.99733101  0.91977926     0.96100
C768        C  0.09885377  0.50312120  0.57911546     0.95900
N769        N  0.50237490  0.79759958  0.75177382    -0.36900
N770        N  0.49872349  0.74892909  0.80471954    -0.57400
N771        N  0.50343405  0.69998451  0.75208914    -0.36900
N772        N  0.50244411  0.74835364  0.69908376    -0.57400
C773        C  0.49449269  0.81502263  0.77943070     0.26700
C774        C  0.49588576  0.81461410  0.72347496     0.26700
C775        C  0.49550038  0.68221069  0.77982300     0.26700
C776        C  0.49726829  0.68188738  0.72393760     0.26700
C777        C  0.50307898  0.77490932  0.82479748     0.35300
C778        C  0.50355641  0.72367453  0.82494828     0.35300
C779        C  0.50802071  0.77417102  0.67927002     0.35300
C780        C  0.50874688  0.72294359  0.67951100     0.35300
C781        C  0.48329208  0.84368331  0.76862778    -0.22200
C782        C  0.48407046  0.84339093  0.73331105    -0.22200
C783        C  0.48449430  0.65233600  0.76921191    -0.22200
C784        C  0.48558348  0.65214104  0.73392463    -0.22200
C785        C  0.51030021  0.76609950  0.85802404    -0.23200
C786        C  0.51070104  0.73363374  0.85809266    -0.23200
C787        C  0.51780881  0.76512080  0.64689036    -0.23200
C788        C  0.51821620  0.73263737  0.64702608    -0.23200
C789        C  0.49856879  0.80632685  0.81413215    -0.18600
C790        C  0.50171392  0.80550723  0.68911368    -0.18600
C791        C  0.50321353  0.69107508  0.68958991    -0.18600
C792        C  0.49942004  0.69168932  0.81446103    -0.18600
H793        H  0.47541658  0.86284004  0.78453911     0.14300
H794        H  0.47688766  0.86230459  0.71676640     0.14300
H795        H  0.47654579  0.63269095  0.78524750     0.14300
H796        H  0.47864930  0.63231111  0.71749773     0.14300
H797        H  0.51455177  0.78144325  0.87999671     0.12600
H798        H  0.51523257  0.71900370  0.88013496     0.12600
H799        H  0.52335015  0.78030203  0.62521423     0.12600
H800        H  0.52412827  0.71780707  0.62547636     0.12600
H801        H  0.51320243  0.77603709  0.75226453     0.25900
H802        H  0.51413315  0.72258194  0.75245831     0.25900
N803        N  0.19933714  0.99658875  0.75106203    -0.36900
N804        N  0.24944384  0.00248201  0.69951057    -0.57400
N805        N  0.29731728  0.99721073  0.75323975    -0.36900
N806        N  0.24741314  0.99600013  0.80501792    -0.57400
C807        C  0.18235061  0.00445804  0.72314786     0.26700
C808        C  0.18131805  0.00218382  0.77893120     0.26700
C809        C  0.31611723  0.00498404  0.72617185     0.26700
C810        C  0.31503883  0.00168160  0.78195003     0.26700
C811        C  0.22397498  0.99828803  0.67858264     0.35300
C812        C  0.27540218  0.99909702  0.67972042     0.35300
C813        C  0.22109756  0.99129118  0.82443882     0.35300
C814        C  0.27252633  0.99103490  0.82560460     0.35300
C815        C  0.15298387  0.01469316  0.73331256    -0.22200
C816        C  0.15235210  0.01333190  0.76854456    -0.22200
C817        C  0.34632019  0.01407267  0.73775558    -0.22200
C818        C  0.34563891  0.01203044  0.77296382    -0.22200
C819        C  0.23380091  0.99269577  0.64528431    -0.23200
C820        C  0.26639174  0.99328511  0.64598684    -0.23200
C821        C  0.22953518  0.98357953  0.85766629    -0.23200
C822        C  0.26213141  0.98347633  0.85841834    -0.23200
C823        C  0.19202897  0.00120015  0.68867654    -0.18600
C824        C  0.18975468  0.99642855  0.81339920    -0.18600
C825        C  0.30476496  0.99564217  0.81595231    -0.18600
C826        C  0.30720951  0.00263598  0.69123928    -0.18600
H827        H  0.13398241  0.02235806  0.71702543     0.14300
H828        H  0.13274449  0.01978080  0.78467205     0.14300
H829        H  0.36675508  0.02136802  0.72242270     0.14300
H830        H  0.36547786  0.01748493  0.78999327     0.14300
H831        H  0.21904392  0.98882010  0.62277309     0.12600
H832        H  0.28169704  0.98993012  0.62411379     0.12600
H833        H  0.21387531  0.97917112  0.87928758     0.12600
H834        H  0.27654340  0.97893458  0.88072386     0.12600
H835        H  0.22123904  0.98637882  0.75093559     0.25900
H836        H  0.27422045  0.98780974  0.75204974     0.25900
C837        C  0.12477116  0.97657719  0.62759540    -0.20600
C838        C  0.12224609  0.50407165  0.60777267    -0.07100
C839        C  0.14257986  0.53094655  0.61530839     0.13700
C840        C  0.16484982  0.52927510  0.64202504    -0.20600
C841        C  0.16731881  0.00168032  0.66145344    -0.07200
C842        C  0.14691998  0.97503699  0.65431129     0.13700
C843        C  0.14812529  0.94445767  0.67396339    -0.24000
H844        H  0.10933905  0.95591444  0.62224346     0.15000
H845        H  0.18067643  0.54955661  0.64776413     0.15000
C846        C  0.14176051  0.56124311  0.59511602    -0.23900
H847        H  0.15318642  0.92487073  0.65600864     0.05200
H848        H  0.12477314  0.43919055  0.68638506     0.08500
H849        H  0.16665576  0.94505957  0.69418194     0.08500
H850        H  0.11829752  0.57183318  0.59820844     0.08400
H851        H  0.14635338  0.05641586  0.56759613     0.08400
H852        H  0.16012448  0.57911628  0.60403450     0.05200
C853        C  0.14332717  0.97099446  0.84350388    -0.20600
C854        C  0.16440590  0.99734704  0.83979169    -0.07100
C855        C  0.16120561  0.52414368  0.86089576     0.13700
C856        C  0.13761566  0.52354927  0.88621076    -0.20600
C857        C  0.11714727  0.99675265  0.89104406    -0.07200
C858        C  0.11964741  0.97027334  0.86886774     0.13700
C859        C  0.09722077  0.94149474  0.87105759    -0.24000
H860        H  0.14569316  0.95079276  0.82663317     0.15000
H861        H  0.13562192  0.54399724  0.90278790     0.15000
C862        C  0.18256757  0.55342525  0.85654623    -0.23900
H863        H  0.10134688  0.92433839  0.85005288     0.05200
H864        H  0.07224668  0.94869827  0.86900855     0.08500
H865        H  0.10071981  0.92896583  0.89562708     0.08500
H866        H  0.18027502  0.56257560  0.83004260     0.08400
H867        H  0.20767267  0.54780788  0.86133256     0.08400
H868        H  0.17634726  0.57250229  0.87467132     0.05200
C869        C  0.36436729  0.52833220  0.61993187    -0.20600
C870        C  0.37803806  0.49947648  0.61162689    -0.07100
C871        C  0.36902255  0.97204330  0.63096076     0.13700
C872        C  0.34670676  0.97434873  0.65745700    -0.20600
C873        C  0.33277922  0.00296664  0.66500219    -0.07200
C874        C  0.34182901  0.53040928  0.64623792     0.13700
C875        C  0.32806351  0.56210187  0.65320850    -0.24000
H876        H  0.37093177  0.54950840  0.60552512     0.15000
H877        H  0.33941298  0.95345583  0.67201103     0.15000
C878        C  0.38242538  0.94013005  0.62418255    -0.23900
H879        H  0.31560931  0.57017776  0.62992212     0.05200
H880        H  0.34759529  0.07965753  0.65982063     0.08500
H881        H  0.31088616  0.56148264  0.67474107     0.08500
H882        H  0.40871764  0.94176205  0.62670920     0.08400
H883        H  0.37556784  0.43168929  0.59821059     0.08400
H884        H  0.37328298  0.92196452  0.64264434     0.05200
C885        C  0.35901501  0.52148241  0.88989876    -0.20600
C886        C  0.37612438  0.99409833  0.89530681    -0.07100
C887        C  0.36992388  0.96733095  0.87384968     0.13700
C888        C  0.34657311  0.96865602  0.84816593    -0.20600
C889        C  0.32928130  0.99585686  0.84340299    -0.07200
C890        C  0.33569745  0.52270210  0.86434549     0.13700
C891        C  0.31853820  0.55303327  0.86034127    -0.24000
H892        H  0.36355902  0.54217197  0.90598447     0.15000
H893        H  0.34162188  0.94831215  0.83168060     0.15000
C894        C  0.38804729  0.93753513  0.87714515    -0.23900
H895        H  0.33604818  0.57278006  0.85481751     0.05200
H896        H  0.30591310  0.05831245  0.88454049     0.08500
H897        H  0.30082966  0.55206944  0.83927370     0.08500
H898        H  0.38292153  0.92621267  0.90227974     0.08400
H899        H  0.41393012  0.44319391  0.87469273     0.08400
H900        H  0.38121346  0.91992480  0.85692888     0.05200
C901        C  0.02822377  0.64672926  0.65885874    -0.20600
C902        C  0.50227620  0.66611937  0.66243073    -0.07100
C903        C  0.47604888  0.66190331  0.64006304     0.13700
C904        C  0.47681151  0.63903833  0.61390324    -0.20600
C905        C  0.00324879  0.62026411  0.60931225    -0.07200
C906        C  0.02914116  0.62387004  0.63258220     0.13700
C907        C  0.05754617  0.60347988  0.63049747    -0.24000
H908        H  0.04803923  0.64984447  0.67651640     0.15000
H909        H  0.45675365  0.63623066  0.59654147     0.15000
C910        C  0.44712944  0.68136315  0.64399510    -0.23900
H911        H  0.07438333  0.60827882  0.65205016     0.05200
H912        H  0.07072854  0.60837357  0.60634564     0.08500
H913        H  0.04967792  0.57806966  0.63158281     0.08500
H914        H  0.45365383  0.70683195  0.64021901     0.08400
H915        H  0.43697601  0.67792339  0.67005407     0.08400
H916        H  0.42839889  0.67445460  0.62497049     0.05200
C917        C  0.02574294  0.64799541  0.84423083    -0.20600
C918        C  0.49912249  0.66651819  0.84111497    -0.07100
C919        C  0.47261493  0.66044549  0.86255301     0.13700
C920        C  0.47371508  0.63650381  0.88731809    -0.20600
C921        C  0.50069109  0.61837244  0.89130069    -0.07200
C922        C  0.02694572  0.62394888  0.86895132     0.13700
C923        C  0.05602093  0.60440766  0.87019589    -0.24000
H924        H  0.04574942  0.65252860  0.82719125     0.15000
H925        H  0.45343000  0.63228485  0.90402071     0.15000
C926        C  0.44299353  0.67889108  0.85897658    -0.23900
H927        H  0.07301341  0.61082562  0.84930897     0.05200
H928        H  0.04896875  0.57891118  0.86721387     0.08500
H929        H  0.06878669  0.60841710  0.89484149     0.08500
H930        H  0.43343928  0.67612830  0.83252709     0.08400
H931        H  0.44846645  0.70435563  0.86426968     0.08400
H932        H  0.42417204  0.67052501  0.87715881     0.05200
C933        C  0.47456266  0.85555875  0.61427462    -0.20600
C934        C  0.99969496  0.87847409  0.61190299    -0.07100
C935        C  0.02539459  0.87744617  0.63542257     0.13700
C936        C  0.02533662  0.85339453  0.66020947    -0.20600
C937        C  0.50054978  0.83019797  0.66196864    -0.07200
C938        C  0.47478984  0.83131559  0.63881723     0.13700
C939        C  0.44733725  0.80720822  0.64025233    -0.24000
H940        H  0.45489901  0.85620740  0.59635968     0.15000
H941        H  0.04481481  0.85253458  0.67835111     0.15000
C942        C  0.05261087  0.90192382  0.63530667    -0.23900
H943        H  0.42871852  0.81220880  0.62106025     0.05200
H944        H  0.43632967  0.80747580  0.66610087     0.08500
H945        H  0.45569421  0.78319248  0.63482543     0.08500
H946        H  0.04333249  0.92602458  0.63754169     0.08400
H947        H  0.06660071  0.90002292  0.61136263     0.08400
H948        H  0.06919322  0.89866353  0.65706865     0.05200
C949        C  0.02264328  0.87175546  0.87753058    -0.20600
C950        C  0.49423156  0.87530527  0.89588842    -0.07100
C951        C  0.46679970  0.85647800  0.88623995     0.13700
C952        C  0.46877521  0.83473726  0.85900244    -0.20600
C953        C  0.49722647  0.83128459  0.84110217    -0.07200
C954        C  0.02442131  0.85007089  0.85031276     0.13700
C955        C  0.05545187  0.84678887  0.83174131    -0.24000
H956        H  0.04373880  0.88596578  0.88452442     0.15000
H957        H  0.44811036  0.81994361  0.85182400     0.15000
C958        C  0.43554242  0.85827562  0.90477646    -0.23900
H959        H  0.07451746  0.86304230  0.84232142     0.05200
H960        H  0.05239911  0.85242581  0.80417828     0.08500
H961        H  0.06324943  0.82214840  0.83417866     0.08500
H962        H  0.42627516  0.88227712  0.90192999     0.08400
H963        H  0.43873570  0.85271608  0.93234123     0.08400
H964        H  0.41724038  0.84111196  0.89428306     0.05200
N965        N  0.93019484  0.01184048  0.46317584    -0.06400
N966        N  0.91200768  0.02174884  0.43819265    -0.58500
N967        N  0.93031569  0.48308082  0.04280815    -0.06100
N968        N  0.91177848  0.47252957  0.06789424    -0.60600
N969        N  0.93096452  0.01419890  0.04186728    -0.05700
N970        N  0.91283916  0.02532302  0.06636239    -0.58500
N971        N  0.92928805  0.48069956  0.46408912    -0.05400
N972        N  0.91046379  0.46887749  0.43966273    -0.61000
C973        C  0.89994571  0.49472288  0.42351931     0.95800
C974        C  0.90108481  0.99902854  0.08262536     0.95600
N975        N  0.51344923  0.43192005  0.04321451    -0.06600
N976        N  0.52489561  0.41435243  0.06778055    -0.59100
N977        N  0.98053316  0.42836264  0.46504114    -0.04700
N978        N  0.96875532  0.40929263  0.44081541    -0.60300
N979        N  0.51177128  0.42905046  0.46445159    -0.06600
N980        N  0.52181830  0.41048977  0.43979089    -0.59400
N981        N  0.98218527  0.43077588  0.04399585    -0.04300
N982        N  0.97178545  0.41214275  0.06916342    -0.60400
Mn983      Mn  0.95480739  0.45503249  0.00407645     1.18400
C984        C  0.49877516  0.40233121  0.08405328     0.97900
C985        C  0.99473751  0.39821332  0.42515279     0.98500
N986        N  0.98560413  0.06798306  0.03963662    -0.06600
N987        N  0.97554110  0.08595758  0.06480496    -0.62900
N988        N  0.51565351  0.06612331  0.46003881    -0.04300
N989        N  0.52683126  0.08398978  0.43469645    -0.63600
N990        N  0.98442442  0.06576802  0.46054841    -0.06100
N991        N  0.97378235  0.08347902  0.43555283    -0.63200
N992        N  0.51686065  0.06844454  0.03920849    -0.05000
N993        N  0.52862937  0.08666656  0.06418853    -0.63900
Mn994      Mn  0.95710636  0.04066369  0.50130216     1.10700
C995        C  0.50261130  0.09734864  0.08015371     0.99100
C996        C  0.00049240  0.09456658  0.41938120     0.99200
N997        N  0.56562898  0.48294258  0.46164550    -0.06100
N998        N  0.58263212  0.47136104  0.43655956    -0.61500
N999        N  0.56854737  0.01674611  0.03929866    -0.05500
N1000       N  0.58784804  0.02879429  0.06314286    -0.58200
N1001       N  0.56767001  0.48563623  0.04039660    -0.06800
N1002       N  0.58633267  0.47593978  0.06509969    -0.61100
N1003       N  0.56671184  0.01406210  0.46061130    -0.05800
N1004       N  0.58457009  0.02425363  0.43476843    -0.58300
Mn1005     Mn  0.54024943  0.45678896  0.00246856     1.20200
Mn1006     Mn  0.54264829  0.04207018  0.49976594     1.10100
Cl1007     Cl  0.49866837  0.99863403  0.00197605    -0.86200
C1008       C  0.59414929  0.49733180  0.41976945     0.96100
C1009       C  0.59884709  0.00312017  0.07912226     0.95900
N1010       N  0.00235717  0.29760059  0.25176840    -0.36900
N1011       N  0.99871689  0.24893635  0.30471998    -0.57400
N1012       N  0.00343830  0.19998784  0.25209528    -0.36900
N1013       N  0.00243817  0.24835055  0.19908406    -0.57400
C1014       C  0.99447841  0.31502632  0.27942425     0.26700
C1015       C  0.99586541  0.31461180  0.22346826     0.26700
C1016       C  0.99549856  0.18221798  0.27983038     0.26700
C1017       C  0.99727253  0.18188862  0.22394529     0.26700
C1018       C  0.00308425  0.27491928  0.32479137     0.35300
C1019       C  0.00356412  0.22368497  0.32494831     0.35300
C1020       C  0.00801060  0.27416725  0.17926835     0.35300
C1021       C  0.00875265  0.22294074  0.17951626     0.35300
C1022       C  0.98327665  0.34368600  0.26861955    -0.22200
C1023       C  0.98405112  0.34338988  0.23330254    -0.22200
C1024       C  0.98448864  0.15234385  0.26922163    -0.22200
C1025       C  0.98558224  0.15214488  0.23393455    -0.22200
C1026       C  0.01032929  0.26611449  0.35801328    -0.23200
C1027       C  0.01073174  0.23364867  0.35808565    -0.23200
C1028       C  0.01780834  0.26511685  0.14689224    -0.23200
C1029       C  0.01822630  0.23263384  0.14703252    -0.23200
C1030       C  0.99856200  0.30633431  0.31412568    -0.18600
C1031       C  0.00169400  0.30550226  0.18910775    -0.18600
C1032       C  0.00322099  0.19107260  0.18959713    -0.18600
C1033       C  0.99941838  0.19169908  0.31446766    -0.18600
H1034       H  0.97540488  0.36284512  0.28452988     0.14300
H1035       H  0.97686828  0.36230260  0.21675663     0.14300
H1036       H  0.97653535  0.13270162  0.28525869     0.14300
H1037       H  0.97864673  0.13231424  0.21750926     0.14300
H1038       H  0.01459576  0.28146166  0.37998036     0.12600
H1039       H  0.01527960  0.21902148  0.38012574     0.12600
H1040       H  0.02334952  0.28029742  0.12521553     0.12600
H1041       H  0.02414687  0.21780305  0.12548625     0.12600
H1042       H  0.01318575  0.27603811  0.25226064     0.25900
H1043       H  0.01414117  0.22258412  0.25246271     0.25900
N1044       N  0.69934509  0.49659785  0.25105875    -0.36900
N1045       N  0.74945119  0.50250839  0.19951041    -0.57400
N1046       N  0.79732242  0.49723755  0.25324077    -0.36900
N1047       N  0.74741741  0.49600535  0.30501496    -0.57400
C1048       C  0.68236308  0.50447929  0.22314619     0.26700
C1049       C  0.68132922  0.50220089  0.27892798     0.26700
C1050       C  0.81612039  0.50502685  0.22617624     0.26700
C1051       C  0.81504016  0.50171079  0.28195337     0.26700
C1052       C  0.72398349  0.49829980  0.17858327     0.35300
C1053       C  0.77541095  0.49912226  0.17972291     0.35300
C1054       C  0.72110114  0.49128591  0.32443209     0.35300
C1055       C  0.77252945  0.49103294  0.32560025     0.35300
C1056       C  0.65300365  0.51473236  0.23331157    -0.22200
C1057       C  0.65237110  0.51336852  0.26854324    -0.22200
C1058       C  0.84631797  0.51413066  0.23776439    -0.22200
C1059       C  0.84563560  0.51207953  0.27297230    -0.22200
C1060       C  0.73381103  0.49269660  0.14528797    -0.23200
C1061       C  0.76640247  0.49329421  0.14599164    -0.23200
C1062       C  0.72953662  0.48356012  0.35765596    -0.23200
C1063       C  0.76213304  0.48345846  0.35840946    -0.23200
C1064       C  0.69203747  0.50121210  0.18867573    -0.18600
C1065       C  0.68976052  0.49643214  0.31339370    -0.18600
C1066       C  0.80476757  0.49565284  0.31595234    -0.18600
C1067       C  0.80721705  0.50267523  0.19124265    -0.18600
H1068       H  0.63400743  0.52240976  0.21702495     0.14300
H1069       H  0.63276791  0.51982748  0.28467177     0.14300
H1070       H  0.86675023  0.52144000  0.22243433     0.14300
H1071       H  0.86547083  0.51754007  0.29000488     0.14300
H1072       H  0.71905465  0.48880883  0.12277829     0.12600
H1073       H  0.78170950  0.48993386  0.12412115     0.12600
H1074       H  0.71387528  0.47914292  0.37927422     0.12600
H1075       H  0.77654417  0.47890930  0.38071360     0.12600
H1076       H  0.72124015  0.48637225  0.25093049     0.25900
H1077       H  0.77423011  0.48782188  0.25204645     0.25900
C1078       C  0.62476027  0.47658333  0.12762007    -0.20600
C1079       C  0.62223936  0.00406878  0.10777874    -0.07100
C1080       C  0.64258355  0.03093792  0.11530560     0.13700
C1081       C  0.66485122  0.02926543  0.14202409    -0.20600
C1082       C  0.66732446  0.50168658  0.16145543    -0.07200
C1083       C  0.64691474  0.47504675  0.15433138     0.13700
C1084       C  0.64811355  0.44447524  0.17399876    -0.24000
H1085       H  0.60932125  0.45592294  0.12227971     0.15000
H1086       H  0.68068478  0.04954306  0.14775758     0.15000
C1087       C  0.64177943  0.06122790  0.09509978    -0.23900
H1088       H  0.65316102  0.42487778  0.15605240     0.05200
H1089       H  0.62475261  0.93919509  0.18640176     0.08500
H1090       H  0.66665034  0.44507863  0.19421060     0.08500
H1091       H  0.61832277  0.07183192  0.09818774     0.08400
H1092       H  0.64634356  0.55640646  0.06759159     0.08400
H1093       H  0.66015296  0.07909507  0.10400983     0.05200
C1094       C  0.64333079  0.47099825  0.34349335    -0.20600
C1095       C  0.66441084  0.49735006  0.33978424    -0.07100
C1096       C  0.66120375  0.02414785  0.36090121     0.13700
C1097       C  0.63761064  0.02355547  0.38621249    -0.20600
C1098       C  0.61714997  0.49675522  0.39103346    -0.07200
C1099       C  0.61965017  0.47027678  0.36885619     0.13700
C1100       C  0.59722301  0.44149859  0.37104452    -0.24000
H1101       H  0.64569693  0.45079717  0.32662181     0.15000
H1102       H  0.63561474  0.04400457  0.40278754     0.15000
C1103       C  0.68256822  0.05342794  0.35655440    -0.23900
H1104       H  0.60134893  0.42434316  0.35003887     0.05200
H1105       H  0.57224911  0.44870273  0.36899585     0.08500
H1106       H  0.60072181  0.42896851  0.39561331     0.08500
H1107       H  0.68027889  0.06257899  0.33005072     0.08400
H1108       H  0.70767231  0.04780820  0.36134333     0.08400
H1109       H  0.67634787  0.07250519  0.37467928     0.05200
C1110       C  0.86436705  0.02833055  0.11993945    -0.20600
C1111       C  0.87802174  0.99946927  0.11162278    -0.07100
C1112       C  0.86907352  0.47209127  0.13101139     0.13700
C1113       C  0.84675660  0.47440096  0.15750600    -0.20600
C1114       C  0.83278942  0.50300794  0.16500806    -0.07200
C1115       C  0.84183195  0.03041215  0.14624805     0.13700
C1116       C  0.82807999  0.06210963  0.15322666    -0.24000
H1117       H  0.87094152  0.04950819  0.10553968     0.15000
H1118       H  0.83949298  0.45351847  0.17209242     0.15000
C1119       C  0.88252595  0.44019176  0.12428447    -0.23900
H1120       H  0.81562737  0.07019450  0.12994318     0.05200
H1121       H  0.84751215  0.57970672  0.15971009     0.08500
H1122       H  0.81090422  0.06149323  0.17476072     0.08500
H1123       H  0.90881856  0.44186987  0.12679706     0.08400
H1124       H  0.87550052  0.93169173  0.09816795     0.08400
H1125       H  0.87341972  0.42204160  0.14278250     0.05200
C1126       C  0.85900207  0.02146694  0.38991178    -0.20600
C1127       C  0.87611772  0.49409643  0.39531491    -0.07100
C1128       C  0.86992315  0.46733378  0.37384946     0.13700
C1129       C  0.84657642  0.46866333  0.34816168    -0.20600
C1130       C  0.82928189  0.49586342  0.34340463    -0.07200
C1131       C  0.83568266  0.02268588  0.36436081     0.13700
C1132       C  0.81850991  0.05301078  0.36037145    -0.24000
H1133       H  0.86353363  0.04214997  0.40601061     0.15000
H1134       H  0.84163006  0.44832346  0.33166922     0.15000
C1135       C  0.88804870  0.43753885  0.37714077    -0.23900
H1136       H  0.83601217  0.07276721  0.35485910     0.05200
H1137       H  0.80589453  0.55829897  0.38456438     0.08500
H1138       H  0.80080349  0.05204929  0.33930191     0.08500
H1139       H  0.88292119  0.42621157  0.40227250     0.08400
H1140       H  0.91398351  0.94324374  0.37463835     0.08400
H1141       H  0.88121842  0.41993181  0.35691991     0.05200
C1142       C  0.52820588  0.14670573  0.15888525    -0.20600
C1143       C  0.00227814  0.16611497  0.16243949    -0.07100
C1144       C  0.97605274  0.16190825  0.14006733     0.13700
C1145       C  0.97680898  0.13903984  0.11391028    -0.20600
C1146       C  0.50323580  0.12025351  0.10932860    -0.07200
C1147       C  0.52911674  0.12383962  0.13261514     0.13700
C1148       C  0.55749951  0.10341739  0.13055715    -0.24000
H1149       H  0.54801404  0.14980695  0.17655439     0.15000
H1150       H  0.95675432  0.13624097  0.09654311     0.15000
C1151       C  0.94714088  0.18138008  0.14399322    -0.23900
H1152       H  0.57432570  0.10820092  0.15212304     0.05200
H1153       H  0.57070366  0.10829325  0.10641539     0.08500
H1154       H  0.54960257  0.07801469  0.13164051     0.08500
H1155       H  0.95367440  0.20684627  0.14021275     0.08400
H1156       H  0.93698445  0.17794813  0.17005199     0.08400
H1157       H  0.92840926  0.17447529  0.12496845     0.05200
C1158       C  0.52572872  0.14798690  0.34422551    -0.20600
C1159       C  0.99911689  0.16653019  0.34112489    -0.07100
C1160       C  0.97261859  0.16047891  0.36258296     0.13700
C1161       C  0.97371330  0.13653258  0.38734390    -0.20600
C1162       C  0.00067496  0.11837706  0.39130353    -0.07200
C1163       C  0.52692531  0.12393554  0.36894087     0.13700
C1164       C  0.55598513  0.10437133  0.37016524    -0.24000
H1165       H  0.54572992  0.15250754  0.32717561     0.15000
H1166       H  0.95343660  0.13232924  0.40406201     0.15000
C1167       C  0.94301171  0.17895071  0.35903180    -0.23900
H1168       H  0.57297113  0.11077840  0.34926878     0.05200
H1169       H  0.54891200  0.07887962  0.36718436     0.08500
H1170       H  0.56876637  0.10836876  0.39480349     0.08500
H1171       H  0.93343966  0.17620057  0.33258848     0.08400
H1172       H  0.94850829  0.20441064  0.36432761     0.08400
H1173       H  0.92419479  0.17059688  0.37722539     0.05200
C1174       C  0.97455267  0.35554987  0.11426070    -0.20600
C1175       C  0.49967294  0.37847582  0.11190581    -0.07100
C1176       C  0.52536182  0.37745459  0.13543889     0.13700
C1177       C  0.52530056  0.35340055  0.16022256    -0.20600
C1178       C  0.00053190  0.33019159  0.16196144    -0.07200
C1179       C  0.97477837  0.33130448  0.13880089     0.13700
C1180       C  0.94733130  0.30719006  0.14022335    -0.24000
H1181       H  0.95489429  0.35619583  0.09633865     0.15000
H1182       H  0.54477088  0.35254554  0.17837466     0.15000
C1183       C  0.55256871  0.40194283  0.13534113    -0.23900
H1184       H  0.92871753  0.31218736  0.12102437     0.05200
H1185       H  0.93631482  0.30745246  0.16606758     0.08500
H1186       H  0.95569655  0.28317732  0.13479766     0.08500
H1187       H  0.54327913  0.42603904  0.13757415     0.08400
H1188       H  0.56657087  0.40005119  0.11140449     0.08400
H1189       H  0.56914227  0.39868631  0.15711181     0.05200
C1190       C  0.52263064  0.37176766  0.37751890    -0.20600
C1191       C  0.99422469  0.37530426  0.39588906    -0.07100
C1192       C  0.96679581  0.35646915  0.38624837     0.13700
C1193       C  0.96877068  0.33473147  0.35900786    -0.20600
C1194       C  0.99721765  0.33129194  0.34109525    -0.07200
C1195       C  0.52440515  0.35008890  0.35029547     0.13700
C1196       C  0.55542784  0.34682640  0.33170306    -0.24000
H1197       H  0.54372365  0.38598563  0.38450415     0.15000
H1198       H  0.94810897  0.31993019  0.35183654     0.15000
C1199       C  0.93554303  0.35825570  0.40479607    -0.23900
H1200       H  0.57449130  0.36308699  0.34227506     0.05200
H1201       H  0.55235688  0.35246759  0.30414360     0.08500
H1202       H  0.56323954  0.32218993  0.33412844     0.08500
H1203       H  0.92626662  0.38225393  0.40195409     0.08400
H1204       H  0.93874663  0.35269675  0.43235948     0.08400
H1205       H  0.91724344  0.34108652  0.39430808     0.05200
N1206       N  0.93019434  0.01184167  0.96317762    -0.06400
N1207       N  0.91200806  0.02175021  0.93819354    -0.58500
N1208       N  0.93031791  0.48307678  0.54280713    -0.06100
N1209       N  0.91178291  0.47252325  0.56789377    -0.60600
N1210       N  0.93096675  0.01419790  0.54186528    -0.05700
N1211       N  0.91283990  0.02531954  0.56636067    -0.58500
N1212       N  0.92928841  0.48070427  0.96409026    -0.05400
N1213       N  0.91046285  0.46888323  0.93966471    -0.61000
C1214       C  0.89994612  0.49472887  0.92352077     0.95800
C1215       C  0.90108730  0.99902326  0.58262207     0.95600
N1216       N  0.51345714  0.43192142  0.54321181    -0.06600
N1217       N  0.52490511  0.41435534  0.56777843    -0.59100
N1218       N  0.98053057  0.42836277  0.96504238    -0.04700
N1219       N  0.96875278  0.40929159  0.94081748    -0.60300
N1220       N  0.51176816  0.42904864  0.96445453    -0.06600
N1221       N  0.52181561  0.41048568  0.93979586    -0.59400
N1222       N  0.98218966  0.43077703  0.54399469    -0.04300
N1223       N  0.97179011  0.41214562  0.56916367    -0.60400
Mn1224     Mn  0.95480976  0.45503053  0.50407515     1.18400
C1225       C  0.49878551  0.40233465  0.58405339     0.97900
C1226       C  0.99473507  0.39821052  0.92515635     0.98500
N1227       N  0.98560401  0.06798561  0.53963108    -0.06600
N1228       N  0.97554047  0.08596079  0.56479855    -0.62900
N1229       N  0.51565683  0.06612592  0.96004143    -0.04300
N1230       N  0.52683514  0.08399269  0.93469944    -0.63600
N1231       N  0.98442750  0.06576744  0.96055306    -0.06100
N1232       N  0.97378786  0.08347952  0.93555704    -0.63200
N1233       N  0.51685723  0.06844347  0.53920569    -0.05000
N1234       N  0.52862460  0.08666803  0.56418431    -0.63900
Mn1235     Mn  0.95710646  0.04066348  0.00130532     1.10700
C1236       C  0.50260560  0.09735033  0.58014771     0.99100
C1237       C  0.00049939  0.09456662  0.91938752     0.99200
N1238       N  0.56562872  0.48293945  0.96165216    -0.06100
N1239       N  0.58263222  0.47135741  0.93656671    -0.61500
N1240       N  0.56854802  0.01674575  0.53929518    -0.05500
N1241       N  0.58785033  0.02879324  0.56313842    -0.58200
N1242       N  0.56767573  0.48563849  0.54038872    -0.06800
N1243       N  0.58633999  0.47594118  0.56508970    -0.61100
N1244       N  0.56671384  0.01406137  0.96061454    -0.05800
N1245       N  0.58457318  0.02425159  0.93477191    -0.58300
Mn1246     Mn  0.54025367  0.45679109  0.50246344     1.20200
Mn1247     Mn  0.54265028  0.04207088  0.99976844     1.10100
Cl1248     Cl  0.49866824  0.99863172  0.50197355    -0.86200
C1249       C  0.59415081  0.49732793  0.91977703     0.96100
C1250       C  0.59885122  0.00311848  0.57911537     0.95900
N1251       N  0.00235817  0.29760073  0.75176986    -0.36900
N1252       N  0.99872280  0.24893331  0.80472036    -0.57400
N1253       N  0.00344179  0.19998607  0.75209400    -0.36900
N1254       N  0.00243351  0.24835189  0.69908354    -0.57400
C1255       C  0.99447840  0.31502484  0.77942662     0.26700
C1256       C  0.99586521  0.31461278  0.72347050     0.26700
C1257       C  0.99551355  0.18221242  0.77982991     0.26700
C1258       C  0.99727936  0.18188568  0.72394410     0.26700
C1259       C  0.00308066  0.27491596  0.82479421     0.35300
C1260       C  0.00356505  0.22368151  0.82495010     0.35300
C1261       C  0.00800610  0.27416911  0.67926828     0.35300
C1262       C  0.00874509  0.22294217  0.67951405     0.35300
C1263       C  0.98327493  0.34368426  0.76862316    -0.22200
C1264       C  0.98404932  0.34338967  0.73330616    -0.22200
C1265       C  0.98451594  0.15233409  0.76922158    -0.22200
C1266       C  0.98560393  0.15213694  0.73393436    -0.22200
C1267       C  0.01031417  0.26611037  0.85801895    -0.23200
C1268       C  0.01071890  0.23364481  0.85809081    -0.23200
C1269       C  0.01780104  0.26511908  0.64689110    -0.23200
C1270       C  0.01821653  0.23263603  0.64702983    -0.23200
C1271       C  0.99856067  0.30633160  0.81412807    -0.18600
C1272       C  0.00169291  0.30550471  0.68910930    -0.18600
C1273       C  0.00321712  0.19107316  0.68959463    -0.18600
C1274       C  0.99942905  0.19169497  0.81446754    -0.18600
H1275       H  0.97540127  0.36284196  0.78453431     0.14300
H1276       H  0.97686458  0.36230225  0.71676114     0.14300
H1277       H  0.97657328  0.13268815  0.78525882     0.14300
H1278       H  0.97867435  0.13230407  0.71750962     0.14300
H1279       H  0.01457114  0.28145676  0.87998844     0.12600
H1280       H  0.01525978  0.21901747  0.88013271     0.12600
H1281       H  0.02334228  0.28030005  0.62521472     0.12600
H1282       H  0.02413567  0.21780576  0.62548262     0.12600
H1283       H  0.01318775  0.27603876  0.75226092     0.25900
H1284       H  0.01413363  0.22258701  0.75246036     0.25900
N1285       N  0.69934331  0.49659277  0.75105995    -0.36900
N1286       N  0.74945035  0.50249556  0.69950985    -0.57400
N1287       N  0.79732230  0.49722805  0.75324024    -0.36900
N1288       N  0.74741677  0.49600473  0.80501619    -0.57400
C1289       C  0.68235847  0.50446635  0.72314632     0.26700
C1290       C  0.68132414  0.50218835  0.77892886     0.26700
C1291       C  0.81612103  0.50500911  0.72617376     0.26700
C1292       C  0.81504131  0.50170321  0.78195169     0.26700
C1293       C  0.72398203  0.49829287  0.67858264     0.35300
C1294       C  0.77540941  0.49910812  0.67972151     0.35300
C1295       C  0.72110110  0.49129033  0.82443569     0.35300
C1296       C  0.77252999  0.49104073  0.82560302     0.35300
C1297       C  0.65299340  0.51470562  0.73331091    -0.22200
C1298       C  0.65236048  0.51334185  0.76854261    -0.22200
C1299       C  0.84632051  0.51410858  0.73775955    -0.22200
C1300       C  0.84563846  0.51206381  0.77296782    -0.22200
C1301       C  0.73380873  0.49269230  0.64528638    -0.23200
C1302       C  0.76639995  0.49328505  0.64598965    -0.23200
C1303       C  0.72953852  0.48357631  0.85766249    -0.23200
C1304       C  0.76213496  0.48347723  0.85841552    -0.23200
C1305       C  0.69203600  0.50120559  0.68867555    -0.18600
C1306       C  0.68975853  0.49642789  0.81339598    -0.18600
C1307       C  0.80476815  0.49565538  0.81595256    -0.18600
C1308       C  0.80721602  0.50265622  0.69124070    -0.18600
H1309       H  0.63399346  0.52237402  0.71702383     0.14300
H1310       H  0.63275343  0.51979221  0.78467016     0.14300
H1311       H  0.86675369  0.52141177  0.72242789     0.14300
H1312       H  0.86547497  0.51752381  0.78999884     0.14300
H1313       H  0.71905191  0.48880882  0.62277631     0.12600
H1314       H  0.78170617  0.48992516  0.62411840     0.12600
H1315       H  0.71387836  0.47916467  0.87928287     0.12600
H1316       H  0.77654697  0.47893594  0.88072116     0.12600
H1317       H  0.72124314  0.48637864  0.75093289     0.25900
H1318       H  0.77422856  0.48781771  0.75204835     0.25900
C1319       C  0.62477467  0.47657589  0.62760126    -0.20600
C1320       C  0.62224335  0.00406506  0.60777213    -0.07100
C1321       C  0.64257893  0.03093772  0.61531054     0.13700
C1322       C  0.66484503  0.02926354  0.64203052    -0.20600
C1323       C  0.66732475  0.50168233  0.66145363    -0.07200
C1324       C  0.64692639  0.47503779  0.65431492     0.13700
C1325       C  0.64813492  0.44445984  0.67396913    -0.24000
H1326       H  0.60934388  0.45591189  0.62225065     0.15000
H1327       H  0.68067217  0.04954381  0.64777293     0.15000
C1328       C  0.64176675  0.06123371  0.59511627    -0.23900
H1329       H  0.65319489  0.42487193  0.65601524     0.05200
H1330       H  0.62477032  0.93916631  0.68636919     0.08500
H1331       H  0.66666769  0.44506379  0.69418533     0.08500
H1332       H  0.61830580  0.07182863  0.59820577     0.08400
H1333       H  0.64634090  0.55642378  0.56760607     0.08400
H1334       H  0.66013356  0.07910384  0.60403515     0.05200
C1335       C  0.64332899  0.47099414  0.84349800    -0.20600
C1336       C  0.66440908  0.49734597  0.83978753    -0.07100
C1337       C  0.66120054  0.02414511  0.86089765     0.13700
C1338       C  0.63760966  0.02355249  0.88621138    -0.20600
C1339       C  0.61715071  0.49675097  0.89104012    -0.07200
C1340       C  0.61964895  0.47027310  0.86886166     0.13700
C1341       C  0.59721957  0.44149649  0.87104904    -0.24000
H1342       H  0.64569411  0.45079304  0.82662627     0.15000
H1343       H  0.63561276  0.04400303  0.90278412     0.15000
C1344       C  0.68255949  0.05342810  0.85654386    -0.23900
H1345       H  0.60134366  0.42434158  0.85004241     0.05200
H1346       H  0.57224628  0.44870278  0.86900141     0.08500
H1347       H  0.60071763  0.42896506  0.89561719     0.08500
H1348       H  0.68026607  0.06257461  0.83003881     0.08400
H1349       H  0.70766522  0.04781385  0.86133148     0.08400
H1350       H  0.67633714  0.07250677  0.87466599     0.05200
C1351       C  0.86437730  0.02832157  0.61994908    -0.20600
C1352       C  0.87802309  0.99945917  0.61161865    -0.07100
C1353       C  0.86906395  0.47207363  0.63099773     0.13700
C1354       C  0.84674435  0.47437976  0.65749015    -0.20600
C1355       C  0.83278754  0.50298919  0.66500529    -0.07200
C1356       C  0.84184055  0.03039859  0.64625660     0.13700
C1357       C  0.82809866  0.06209792  0.65325069    -0.24000
H1358       H  0.87096029  0.04950397  0.60556128     0.15000
H1359       H  0.83947143  0.45349331  0.67206537     0.15000
C1360       C  0.88250575  0.44017154  0.62425737    -0.23900
H1361       H  0.81565360  0.07019890  0.62996949     0.05200
H1362       H  0.84753938  0.57968544  0.65975222     0.08500
H1363       H  0.81091858  0.06147693  0.67478077     0.08500
H1364       H  0.90879811  0.44183909  0.62677605     0.08400
H1365       H  0.87548306  0.93168675  0.59812925     0.08400
H1366       H  0.87338973  0.42201624  0.64274449     0.05200
C1367       C  0.85902260  0.02147775  0.88988885    -0.20600
C1368       C  0.87611869  0.49410248  0.89531539    -0.07100
C1369       C  0.86991248  0.46733336  0.87386218     0.13700
C1370       C  0.84656678  0.46866264  0.84817347    -0.20600
C1371       C  0.82928332  0.49586799  0.84340416    -0.07200
C1372       C  0.83570329  0.02269602  0.86433740     0.13700
C1373       C  0.81854853  0.05302923  0.86032786    -0.24000
H1374       H  0.86356880  0.04216888  0.90597162     0.15000
H1375       H  0.84161184  0.44831796  0.83169035     0.15000
C1376       C  0.88802346  0.43753049  0.87716792    -0.23900
H1377       H  0.83606117  0.07277230  0.85479849     0.05200
H1378       H  0.80592037  0.55832726  0.88453874     0.08500
H1379       H  0.80083865  0.05206432  0.83926165     0.08500
H1380       H  0.88289087  0.42621534  0.90230495     0.08400
H1381       H  0.91394000  0.94319494  0.87467889     0.08400
H1382       H  0.88118484  0.41991804  0.85695547     0.05200
C1383       C  0.52819570  0.14670946  0.65887920    -0.20600
C1384       C  0.00227405  0.16611659  0.66243553    -0.07100
C1385       C  0.97604939  0.16191122  0.64006191     0.13700
C1386       C  0.97680686  0.13904457  0.61390298    -0.20600
C1387       C  0.50322814  0.12025591  0.60932201    -0.07200
C1388       C  0.52910900  0.12384449  0.63260828     0.13700
C1389       C  0.55749478  0.10342648  0.63054886    -0.24000
H1390       H  0.54800379  0.14981234  0.67654820     0.15000
H1391       H  0.95675293  0.13624662  0.59653468     0.15000
C1392       C  0.94713676  0.18138192  0.64398846    -0.23900
H1393       H  0.57432088  0.10821168  0.65211439     0.05200
H1394       H  0.57069769  0.10830513  0.60640688     0.08500
H1395       H  0.54960145  0.07802282  0.63163148     0.08500
H1396       H  0.95366938  0.20684852  0.64020974     0.08400
H1397       H  0.93697987  0.17794816  0.67004674     0.08400
H1398       H  0.92840574  0.17447762  0.62496284     0.05200
C1399       C  0.52573508  0.14799873  0.84423347    -0.20600
C1400       C  0.99912761  0.16652651  0.84112548    -0.07100
C1401       C  0.97262061  0.16046162  0.86256718     0.13700
C1402       C  0.97371491  0.13651727  0.88733043    -0.20600
C1403       C  0.00068465  0.11837624  0.89130812    -0.07200
C1404       C  0.52693576  0.12395124  0.86895317     0.13700
C1405       C  0.55600810  0.10440575  0.87019491    -0.24000
H1406       H  0.54574085  0.15252899  0.82719218     0.15000
H1407       H  0.95343075  0.13230388  0.90403573     0.15000
C1408       C  0.94300552  0.17891775  0.85899633    -0.23900
H1409       H  0.57300007  0.11082180  0.84930691     0.05200
H1410       H  0.54895211  0.07891018  0.86721270     0.08500
H1411       H  0.56877600  0.10841281  0.89483958     0.08500
H1412       H  0.93344818  0.17616102  0.83254751     0.08400
H1413       H  0.94848721  0.20438026  0.86429241     0.08400
H1414       H  0.92418306  0.17055589  0.87717944     0.05200
C1415       C  0.97455651  0.35555424  0.61426064    -0.20600
C1416       C  0.49968386  0.37847918  0.61190595    -0.07100
C1417       C  0.52537523  0.37745390  0.63543550     0.13700
C1418       C  0.52531316  0.35339938  0.66021898    -0.20600
C1419       C  0.00053206  0.33019579  0.66196395    -0.07200
C1420       C  0.97478052  0.33130859  0.63880065     0.13700
C1421       C  0.94733322  0.30719419  0.64022006    -0.24000
H1422       H  0.95489969  0.35619977  0.59633657     0.15000
H1423       H  0.54478522  0.35254120  0.67836849     0.15000
C1424       C  0.55258537  0.40193847  0.63533444    -0.23900
H1425       H  0.92872054  0.31219258  0.62102019     0.05200
H1426       H  0.93631515  0.30745558  0.66606352     0.08500
H1427       H  0.95569816  0.28318160  0.63479349     0.08500
H1428       H  0.54329948  0.42603606  0.63756973     0.08400
H1429       H  0.56658401  0.40004549  0.61139556     0.08400
H1430       H  0.56916111  0.39867905  0.65710251     0.05200
C1431       C  0.52262900  0.37175679  0.87752678    -0.20600
C1432       C  0.99422270  0.37530057  0.89589318    -0.07100
C1433       C  0.96679467  0.35646362  0.88625386     0.13700
C1434       C  0.96876957  0.33472649  0.85901270    -0.20600
C1435       C  0.99721588  0.33128912  0.84109809    -0.07200
C1436       C  0.52440141  0.35007917  0.85030169     0.13700
C1437       C  0.55542547  0.34680949  0.83171398    -0.24000
H1438       H  0.54372427  0.38596970  0.88451562     0.15000
H1439       H  0.94810845  0.31992392  0.85184243     0.15000
C1440       C  0.93554292  0.35824750  0.90480400    -0.23900
H1441       H  0.57449167  0.36306433  0.84229027     0.05200
H1442       H  0.55235991  0.35245354  0.80415444     0.08500
H1443       H  0.56322997  0.32217042  0.83413859     0.08500
H1444       H  0.92626377  0.38224471  0.90196239     0.08400
H1445       H  0.93874905  0.35268943  0.93236728     0.08400
H1446       H  0.91724425  0.34107635  0.89431775     0.05200
N1447       N  0.93019500  0.51184190  0.46317786    -0.06400
N1448       N  0.91200538  0.52174989  0.43819660    -0.58500
N1449       N  0.93031179  0.98307020  0.04280669    -0.06100
N1450       N  0.91177430  0.97251525  0.06789088    -0.60600
N1451       N  0.93097165  0.51420949  0.04186651    -0.05700
N1452       N  0.91284890  0.52533756  0.06636172    -0.58500
N1453       N  0.92929027  0.98069807  0.46408493    -0.05400
N1454       N  0.91047013  0.96887635  0.43965471    -0.61000
C1455       C  0.89995220  0.99472203  0.42351158     0.95800
C1456       C  0.90109341  0.49904532  0.08262769     0.95600
N1457       N  0.51345155  0.93191881  0.04321039    -0.06600
N1458       N  0.52490193  0.91435079  0.06777355    -0.59100
N1459       N  0.98053776  0.92836509  0.46503550    -0.04700
N1460       N  0.96876235  0.90929697  0.44080692    -0.60300
N1461       N  0.51177059  0.92905181  0.46444779    -0.06600
N1462       N  0.52181990  0.91049521  0.43978453    -0.59400
N1463       N  0.98218685  0.93076920  0.04399382    -0.04300
N1464       N  0.97178975  0.91213331  0.06916058    -0.60400
Mn1465     Mn  0.95480733  0.95502688  0.00407413     1.18400
C1466       C  0.49878438  0.90232420  0.08404685     0.97900
C1467       C  0.99474606  0.89822052  0.42514456     0.98500
N1468       N  0.98561599  0.56798649  0.03963027    -0.06600
N1469       N  0.97555416  0.58596394  0.06479631    -0.62900
N1470       N  0.51566290  0.56612282  0.46003375    -0.04300
N1471       N  0.52683894  0.58398868  0.43468986    -0.63600
N1472       N  0.98443043  0.56576399  0.46054546    -0.06100
N1473       N  0.97378835  0.58347398  0.43554936    -0.63200
N1474       N  0.51687152  0.56844503  0.03920272    -0.05000
N1475       N  0.52864230  0.58666908  0.06417990    -0.63900
Mn1476     Mn  0.95711162  0.54066524  0.50130104     1.10700
C1477       C  0.50262558  0.59735528  0.08014381     0.99100
C1478       C  0.00049823  0.59456034  0.41937691     0.99200
N1479       N  0.56562180  0.98294505  0.46164811    -0.06100
N1480       N  0.58262501  0.97136297  0.43656298    -0.61500
N1481       N  0.56855106  0.51674291  0.03929870    -0.05500
N1482       N  0.58784885  0.52879219  0.06314467    -0.58200
N1483       N  0.56766726  0.98563935  0.04039427    -0.06800
N1484       N  0.58633305  0.97594165  0.06509360    -0.61100
N1485       N  0.56671937  0.51405969  0.46060862    -0.05800
N1486       N  0.58457720  0.52425177  0.43476586    -0.58300
Mn1487     Mn  0.54024746  0.95679254  0.00246643     1.20200
Mn1488     Mn  0.54265832  0.54206965  0.49976141     1.10100
Cl1489     Cl  0.49867295  0.49863357  0.00197460    -0.86200
C1490       C  0.59414240  0.99733302  0.41977273     0.96100
C1491       C  0.59884552  0.50311922  0.07912798     0.95900
N1492       N  0.00237520  0.79759661  0.25177219    -0.36900
N1493       N  0.99872578  0.74893023  0.30472101    -0.57400
N1494       N  0.00343347  0.69998294  0.25209272    -0.36900
N1495       N  0.00244380  0.74834821  0.19908503    -0.57400
C1496       C  0.99449737  0.81502193  0.27942890     0.26700
C1497       C  0.99588418  0.81460968  0.22347291     0.26700
C1498       C  0.99549338  0.68221247  0.27982706     0.26700
C1499       C  0.99726533  0.68188545  0.22394203     0.26700
C1500       C  0.00309147  0.77491127  0.32479564     0.35300
C1501       C  0.00356305  0.72367631  0.32494893     0.35300
C1502       C  0.00801858  0.77416471  0.17926977     0.35300
C1503       C  0.00874941  0.72293786  0.17951421     0.35300
C1504       C  0.98329755  0.84368279  0.26862548    -0.22200
C1505       C  0.98407197  0.84338807  0.23330860    -0.22200
C1506       C  0.98447992  0.65233980  0.26921710    -0.22200
C1507       C  0.98557226  0.65214234  0.23392992    -0.22200
C1508       C  0.01032459  0.76610283  0.35801951    -0.23200
C1509       C  0.01072211  0.73363667  0.35808956    -0.23200
C1510       C  0.01780831  0.76511367  0.14689097    -0.23200
C1511       C  0.01821902  0.73263047  0.14702901    -0.23200
C1512       C  0.99857792  0.80632804  0.31413025    -0.18600
C1513       C  0.00170932  0.80550061  0.18911159    -0.18600
C1514       C  0.00321546  0.69107007  0.18959455    -0.18600
C1515       C  0.99941630  0.69169134  0.31446456    -0.18600
H1516       H  0.97542596  0.86284147  0.28453652     0.14300
H1517       H  0.97688939  0.86230156  0.21676361     0.14300
H1518       H  0.97652542  0.63269749  0.28525346     0.14300
H1519       H  0.97863455  0.63231306  0.21750365     0.14300
H1520       H  0.01458605  0.78144777  0.37998935     0.12600
H1521       H  0.01526055  0.71900713  0.38013039     0.12600
H1522       H  0.02334860  0.78029411  0.12521392     0.12600
H1523       H  0.02413251  0.71779946  0.12548036     0.12600
H1524       H  0.01320151  0.77603335  0.25226320     0.25900
H1525       H  0.01413894  0.72257787  0.25246117     0.25900
N1526       N  0.69933818  0.99659005  0.25106360    -0.36900
N1527       N  0.74944347  0.00249557  0.19951313    -0.57400
N1528       N  0.79731711  0.99722362  0.25324150    -0.36900
N1529       N  0.74741413  0.99599967  0.30501893    -0.57400
C1530       C  0.68235294  0.00446514  0.22315071     0.26700
C1531       C  0.68132173  0.00218982  0.27893347     0.26700
C1532       C  0.81611580  0.00500542  0.22617521     0.26700
C1533       C  0.81503783  0.00169273  0.28195262     0.26700
C1534       C  0.72397514  0.99829525  0.17858545     0.35300
C1535       C  0.77540250  0.99911419  0.17972314     0.35300
C1536       C  0.72109847  0.99128464  0.32443811     0.35300
C1537       C  0.77252699  0.99102837  0.32560371     0.35300
C1538       C  0.65299025  0.01470940  0.23331668    -0.22200
C1539       C  0.65235944  0.01334773  0.26854864    -0.22200
C1540       C  0.84631684  0.01409895  0.23776072    -0.22200
C1541       C  0.84563582  0.01205031  0.27296862    -0.22200
C1542       C  0.73380188  0.99270263  0.14528756    -0.23200
C1543       C  0.76639293  0.99329855  0.14598995    -0.23200
C1544       C  0.72953534  0.98356282  0.35766279    -0.23200
C1545       C  0.76213169  0.98345900  0.35841460    -0.23200
C1546       C  0.69202882  0.00120358  0.18867948    -0.18600
C1547       C  0.68975680  0.99642803  0.31340014    -0.18600
C1548       C  0.80476528  0.99564259  0.31595321    -0.18600
C1549       C  0.80720936  0.00265818  0.19124225    -0.18600
H1550       H  0.63399105  0.02238063  0.21703037     0.14300
H1551       H  0.63275472  0.01980230  0.28467731     0.14300
H1552       H  0.86675042  0.02140091  0.22242907     0.14300
H1553       H  0.86547370  0.01750568  0.28999926     0.14300
H1554       H  0.71904526  0.98882267  0.12277680     0.12600
H1555       H  0.78169893  0.98994486  0.12411721     0.12600
H1556       H  0.71387491  0.97914842  0.37928239     0.12600
H1557       H  0.77654355  0.97891075  0.38071844     0.12600
H1558       H  0.72123632  0.98637240  0.25093559     0.25900
H1559       H  0.77422228  0.98781700  0.25204950     0.25900
C1560       C  0.62475808  0.97658054  0.12761336    -0.20600
C1561       C  0.62223809  0.50407057  0.10778451    -0.07100
C1562       C  0.64257962  0.53094217  0.11531037     0.13700
C1563       C  0.66485330  0.52927046  0.14202302    -0.20600
C1564       C  0.66731709  0.00168132  0.16145772    -0.07200
C1565       C  0.64690959  0.97504146  0.15432701     0.13700
C1566       C  0.64810892  0.94446659  0.17398815    -0.24000
H1567       H  0.60931915  0.95592079  0.12226982     0.15000
H1568       H  0.68068569  0.54954944  0.14775461     0.15000
C1569       C  0.64176485  0.56123529  0.09511134    -0.23900
H1570       H  0.65316038  0.92487303  0.15603820     0.05200
H1571       H  0.62475834  0.43920833  0.18641664     0.08500
H1572       H  0.66664340  0.94506801  0.19420237     0.08500
H1573       H  0.61830524  0.57183199  0.09820538     0.08400
H1574       H  0.64635997  0.05639244  0.06758173     0.08400
H1575       H  0.66013443  0.57910586  0.10402270     0.05200
C1576       C  0.64333035  0.97099320  0.34350437    -0.20600
C1577       C  0.66440824  0.99734628  0.33979219    -0.07100
C1578       C  0.66120756  0.52415050  0.36089501     0.13700
C1579       C  0.63761575  0.52355679  0.38620780    -0.20600
C1580       C  0.61714511  0.99675410  0.39103900    -0.07200
C1581       C  0.61964895  0.97027268  0.36886623     0.13700
C1582       C  0.59722537  0.94149187  0.37105828    -0.24000
H1583       H  0.64569855  0.95079055  0.32663553     0.15000
H1584       H  0.63562136  0.54400473  0.40278486     0.15000
C1585       C  0.68257226  0.55343051  0.35654839    -0.23900
H1586       H  0.60135480  0.92433364  0.35005626     0.05200
H1587       H  0.57225039  0.94869210  0.36900644     0.08500
H1588       H  0.60072461  0.92896603  0.39562963     0.08500
H1589       H  0.68028215  0.56258237  0.33004510     0.08400
H1590       H  0.70767646  0.54781013  0.36133584     0.08400
H1591       H  0.67635282  0.57250728  0.37467419     0.05200
C1592       C  0.86435131  0.52834370  0.11991644    -0.20600
C1593       C  0.87803288  0.49948973  0.11162668    -0.07100
C1594       C  0.86903174  0.97206119  0.13097817     0.13700
C1595       C  0.84671760  0.97437127  0.15747546    -0.20600
C1596       C  0.83277987  0.00298723  0.16500598    -0.07200
C1597       C  0.84181633  0.53042556  0.14622530     0.13700
C1598       C  0.82803875  0.56211558  0.15317897    -0.24000
H1599       H  0.87090463  0.54951447  0.10549540     0.15000
H1600       H  0.83943224  0.95348282  0.17204109     0.15000
C1601       C  0.88244447  0.94015003  0.12421441    -0.23900
H1602       H  0.81557430  0.57017261  0.12989089     0.05200
H1603       H  0.84756594  0.07968054  0.15977663     0.08500
H1604       H  0.81086767  0.56150121  0.17471738     0.08500
H1605       H  0.90873694  0.94179190  0.12673625     0.08400
H1606       H  0.87558546  0.43169654  0.09825054     0.08400
H1607       H  0.87331046  0.92199001  0.14268687     0.05200
C1608       C  0.85900359  0.52147256  0.38991275    -0.20600
C1609       C  0.87612505  0.99409537  0.39530662    -0.07100
C1610       C  0.86993911  0.96733606  0.37383436     0.13700
C1611       C  0.84658699  0.96866132  0.34815196    -0.20600
C1612       C  0.82928148  0.99585563  0.34340396    -0.07200
C1613       C  0.83568680  0.52269424  0.36435934     0.13700
C1614       C  0.81851921  0.55302177  0.36036660    -0.24000
H1615       H  0.86353959  0.54215706  0.40600821     0.15000
H1616       H  0.84164624  0.94832318  0.33165540     0.15000
C1617       C  0.88808104  0.93755029  0.37711169    -0.23900
H1618       H  0.83602450  0.57277525  0.35485308     0.05200
H1619       H  0.80588493  0.05828423  0.38457003     0.08500
H1620       H  0.80081293  0.55206118  0.33929686     0.08500
H1621       H  0.88296148  0.92621218  0.40223939     0.08400
H1622       H  0.91395375  0.44321785  0.37466801     0.08400
H1623       H  0.88125823  0.91994692  0.35688455     0.05200
C1624       C  0.52822337  0.64672424  0.15886685    -0.20600
C1625       C  0.00227735  0.66611330  0.16243671    -0.07100
C1626       C  0.97605040  0.66189860  0.14006840     0.13700
C1627       C  0.97681282  0.63903420  0.11390812    -0.20600
C1628       C  0.50325116  0.62026181  0.10931731    -0.07200
C1629       C  0.52914069  0.62386395  0.13259135     0.13700
C1630       C  0.55754197  0.60346830  0.13051222    -0.24000
H1631       H  0.54803668  0.64983684  0.17652767     0.15000
H1632       H  0.95675549  0.63622801  0.09654546     0.15000
C1633       C  0.94713143  0.68135914  0.14400052    -0.23900
H1634       H  0.57437675  0.60826485  0.15206757     0.05200
H1635       H  0.57072856  0.60835877  0.10636240     0.08500
H1636       H  0.54966881  0.57805939  0.13159731     0.08500
H1637       H  0.95365641  0.70682793  0.14022537     0.08400
H1638       H  0.93697753  0.67791892  0.17005925     0.08400
H1639       H  0.92840097  0.67445154  0.12497548     0.05200
C1640       C  0.52572294  0.64798278  0.34421437    -0.20600
C1641       C  0.99911634  0.66652057  0.34111891    -0.07100
C1642       C  0.97261588  0.66046251  0.36257153     0.13700
C1643       C  0.97371329  0.63651763  0.38733340    -0.20600
C1644       C  0.00067961  0.61836961  0.39129850    -0.07200
C1645       C  0.52692544  0.62393457  0.36893275     0.13700
C1646       C  0.55598947  0.60437654  0.37015899    -0.24000
H1647       H  0.54572264  0.65250544  0.32716292     0.15000
H1648       H  0.95343472  0.63230954  0.40404773     0.15000
C1649       C  0.94300430  0.67892606  0.35901368    -0.23900
H1650       H  0.57297397  0.61078485  0.34926153     0.05200
H1651       H  0.54892138  0.57888334  0.36718133     0.08500
H1652       H  0.56877024  0.60837906  0.39479675     0.08500
H1653       H  0.93343672  0.67617159  0.33256893     0.08400
H1654       H  0.94849369  0.70438755  0.36430796     0.08400
H1655       H  0.92418672  0.67056868  0.37720477     0.05200
C1656       C  0.97455806  0.85555003  0.11427068    -0.20600
C1657       C  0.49968858  0.87846930  0.11190025    -0.07100
C1658       C  0.52538613  0.87744420  0.13542268     0.13700
C1659       C  0.52532825  0.85339284  0.16020954    -0.20600
C1660       C  0.00054486  0.83018979  0.16196526    -0.07200
C1661       C  0.97478554  0.83130638  0.13881288     0.13700
C1662       C  0.94733464  0.80719693  0.14024573    -0.24000
H1663       H  0.95489440  0.85619896  0.09635576     0.15000
H1664       H  0.54480467  0.85253511  0.17835366     0.15000
C1665       C  0.55259988  0.90192476  0.13531003    -0.23900
H1666       H  0.92871642  0.81219657  0.12105275     0.05200
H1667       H  0.93632579  0.80746274  0.16609370     0.08500
H1668       H  0.95569390  0.78318213  0.13481848     0.08500
H1669       H  0.54331855  0.92602435  0.13754410     0.08400
H1670       H  0.56659241  0.90002565  0.11136763     0.08400
H1671       H  0.56918053  0.89866619  0.15707390     0.05200
C1672       C  0.52264173  0.87175732  0.37752530    -0.20600
C1673       C  0.99423613  0.87530887  0.39588307    -0.07100
C1674       C  0.96680520  0.85648031  0.38623466     0.13700
C1675       C  0.96878261  0.83473797  0.35899901    -0.20600
C1676       C  0.99723448  0.83128601  0.34109965    -0.07200
C1677       C  0.52441897  0.85007215  0.35030809     0.13700
C1678       C  0.55544917  0.84678897  0.33173638    -0.24000
H1679       H  0.54373787  0.88596661  0.38451929     0.15000
H1680       H  0.94811861  0.81994292  0.35182092     0.15000
C1681       C  0.93554687  0.85827873  0.40476889    -0.23900
H1682       H  0.57451506  0.86304276  0.34231514     0.05200
H1683       H  0.55239593  0.85242450  0.30417301     0.08500
H1684       H  0.56324651  0.82214851  0.33417494     0.08500
H1685       H  0.92628023  0.88228031  0.40192073     0.08400
H1686       H  0.93873842  0.85272008  0.43233410     0.08400
H1687       H  0.91724528  0.84111499  0.39427478     0.05200
N1688       N  0.93019759  0.51184662  0.96317819    -0.06400
N1689       N  0.91200810  0.52175550  0.93819710    -0.58500
N1690       N  0.93031626  0.98306928  0.54280342    -0.06100
N1691       N  0.91177931  0.97251191  0.56788654    -0.60600
N1692       N  0.93097171  0.51420536  0.54186672    -0.05700
N1693       N  0.91284927  0.52533112  0.56636360    -0.58500
N1694       N  0.92928816  0.98069926  0.96408761    -0.05400
N1695       N  0.91046783  0.96887801  0.93965750    -0.61000
C1696       C  0.89995106  0.99472346  0.92351311     0.95800
C1697       C  0.90109644  0.49903731  0.58262900     0.95600
N1698       N  0.51345461  0.93191837  0.54320893    -0.06600
N1699       N  0.52490546  0.91435376  0.56777499    -0.59100
N1700       N  0.98053427  0.92836334  0.96503849    -0.04700
N1701       N  0.96875937  0.90929419  0.94081045    -0.60300
N1702       N  0.51176923  0.92905332  0.96445038    -0.06600
N1703       N  0.52181859  0.91049452  0.93978904    -0.59400
N1704       N  0.98219291  0.93077206  0.54399137    -0.04300
N1705       N  0.97179669  0.91213776  0.56915987    -0.60400
Mn1706     Mn  0.95481163  0.95502755  0.50407122     1.18400
C1707       C  0.49878803  0.90232888  0.58405013     0.97900
C1708       C  0.99474344  0.89821669  0.92514953     0.98500
N1709       N  0.98561263  0.56798728  0.53962724    -0.06600
N1710       N  0.97555146  0.58596561  0.56479307    -0.62900
N1711       N  0.51566667  0.56612211  0.96003719    -0.04300
N1712       N  0.52684562  0.58398799  0.93469473    -0.63600
N1713       N  0.98443717  0.56576590  0.96054866    -0.06100
N1714       N  0.97379720  0.58347754  0.93555287    -0.63200
N1715       N  0.51687206  0.56844647  0.53919978    -0.05000
N1716       N  0.52864227  0.58667263  0.56417559    -0.63900
Mn1717     Mn  0.95711505  0.54066764  0.00130227     1.10700
C1718       C  0.50262499  0.59735813  0.58013933     0.99100
C1719       C  0.00050817  0.59456396  0.91938240     0.99200
N1720       N  0.56562288  0.98294435  0.96165230    -0.06100
N1721       N  0.58262632  0.97136100  0.93656803    -0.61500
N1722       N  0.56855590  0.51674522  0.53929232    -0.05500
N1723       N  0.58785503  0.52879361  0.56313777    -0.58200
N1724       N  0.56766912  0.98563894  0.54038903    -0.06800
N1725       N  0.58633702  0.97594056  0.56508587    -0.61100
N1726       N  0.56672017  0.51405657  0.96061524    -0.05800
N1727       N  0.58457913  0.52424816  0.93477318    -0.58300
Mn1728     Mn  0.54024882  0.95679184  0.50246292     1.20200
Mn1729     Mn  0.54265784  0.54206739  0.99976604     1.10100
Cl1730     Cl  0.49867567  0.49863394  0.50197269    -0.86200
C1731       C  0.59414504  0.99733022  0.91977726     0.96100
C1732       C  0.59885315  0.50311989  0.57911892     0.95900
N1733       N  0.00238249  0.79759946  0.75177312    -0.36900
N1734       N  0.99872988  0.74892949  0.80471990    -0.57400
N1735       N  0.00343861  0.69998377  0.75209051    -0.36900
N1736       N  0.00245003  0.74835240  0.69908396    -0.57400
C1737       C  0.99450250  0.81502365  0.77942992     0.26700
C1738       C  0.99589458  0.81461425  0.72347403     0.26700
C1739       C  0.99550397  0.68221063  0.77982456     0.26700
C1740       C  0.99727309  0.68188634  0.72393923     0.26700
C1741       C  0.00308505  0.77490982  0.82479771     0.35300
C1742       C  0.00355977  0.72367488  0.82494959     0.35300
C1743       C  0.00802563  0.77416934  0.67926919     0.35300
C1744       C  0.00875142  0.72294173  0.67951142     0.35300
C1745       C  0.98330488  0.84368555  0.76862672    -0.22200
C1746       C  0.98408261  0.84339263  0.73331001    -0.22200
C1747       C  0.98449752  0.65233589  0.76921381    -0.22200
C1748       C  0.98558763  0.65214029  0.73392661    -0.22200
C1749       C  0.01030317  0.76610002  0.85802515    -0.23200
C1750       C  0.01070233  0.73363419  0.85809444    -0.23200
C1751       C  0.01781169  0.76511816  0.64688913    -0.23200
C1752       C  0.01821872  0.73263468  0.64702560    -0.23200
C1753       C  0.99857689  0.80632757  0.81413164    -0.18600
C1754       C  0.00172018  0.80550612  0.68911246    -0.18600
C1755       C  0.00321852  0.69107333  0.68959136    -0.18600
C1756       C  0.99942265  0.69168962  0.81446262    -0.18600
H1757       H  0.97543150  0.86284339  0.78453785     0.14300
H1758       H  0.97690137  0.86230689  0.71676532     0.14300
H1759       H  0.97654816  0.63269128  0.78524954     0.14300
H1760       H  0.97865347  0.63231015  0.71749996     0.14300
H1761       H  0.01455359  0.78144383  0.87999797     0.12600
H1762       H  0.01523131  0.71900420  0.88013748     0.12600
H1763       H  0.02335198  0.78029881  0.62521225     0.12600
H1764       H  0.02412940  0.71780383  0.62547582     0.12600
H1765       H  0.01320735  0.77603534  0.75226404     0.25900
H1766       H  0.01413822  0.72258151  0.75245933     0.25900
N1767       N  0.69933711  0.99658250  0.75106210    -0.36900
N1768       N  0.74944281  0.00247946  0.69950954    -0.57400
N1769       N  0.79731741  0.99721158  0.75323770    -0.36900
N1770       N  0.74741434  0.99599680  0.80501704    -0.57400
C1771       C  0.68235013  0.00445204  0.72314835     0.26700
C1772       C  0.68131864  0.00217796  0.77893161     0.26700
C1773       C  0.81611670  0.00498519  0.72616929     0.26700
C1774       C  0.81503966  0.00168203  0.78194757     0.26700
C1775       C  0.72397376  0.99828369  0.67858226     0.35300
C1776       C  0.77540098  0.99909624  0.67971870     0.35300
C1777       C  0.72109931  0.99128787  0.82443884     0.35300
C1778       C  0.77252832  0.99103425  0.82560355     0.35300
C1779       C  0.65298379  0.01468766  0.73331363    -0.22200
C1780       C  0.65235268  0.01332650  0.76854559    -0.22200
C1781       C  0.84631983  0.01407388  0.73775233    -0.22200
C1782       C  0.84563945  0.01203111  0.77296058    -0.22200
C1783       C  0.73379927  0.99269201  0.64528365    -0.23200
C1784       C  0.76639015  0.99328368  0.64598532    -0.23200
C1785       C  0.72953800  0.98357909  0.85766679    -0.23200
C1786       C  0.76213436  0.98347752  0.85841814    -0.23200
C1787       C  0.69202784  0.00119423  0.68867689    -0.18600
C1788       C  0.68975589  0.99642303  0.81339945    -0.18600
C1789       C  0.80476669  0.99564188  0.81595012    -0.18600
C1790       C  0.80720836  0.00263694  0.69123683    -0.18600
H1791       H  0.63398222  0.02235299  0.71702691     0.14300
H1792       H  0.63274554  0.01977599  0.78467348     0.14300
H1793       H  0.86675434  0.02136943  0.72241895     0.14300
H1794       H  0.86547885  0.01748535  0.78998952     0.14300
H1795       H  0.71904198  0.98881534  0.62277283     0.12600
H1796       H  0.78169524  0.98992973  0.62411186     0.12600
H1797       H  0.71387874  0.97917160  0.87928877     0.12600
H1798       H  0.77654705  0.97893814  0.88072381     0.12600
H1799       H  0.72123892  0.98637219  0.75093515     0.25900
H1800       H  0.77422076  0.98781058  0.75204827     0.25900
C1801       C  0.62476960  0.97657130  0.62759638    -0.20600
C1802       C  0.62224476  0.50406902  0.60777664    -0.07100
C1803       C  0.64257691  0.53094436  0.61531534     0.13700
C1804       C  0.66484714  0.52927150  0.64203139    -0.20600
C1805       C  0.66731735  0.00167433  0.66145429    -0.07200
C1806       C  0.64691932  0.97503058  0.65431137     0.13700
C1807       C  0.64812693  0.94445025  0.67396130    -0.24000
H1808       H  0.60933769  0.95590847  0.62224411     0.15000
H1809       H  0.68067229  0.54955347  0.64777304     0.15000
C1810       C  0.64175583  0.56124285  0.59512658    -0.23900
H1811       H  0.65318861  0.92486472  0.65600496     0.05200
H1812       H  0.62477917  0.43917790  0.68637970     0.08500
H1813       H  0.66665820  0.94505207  0.69417903     0.08500
H1814       H  0.61829200  0.57183099  0.59821983     0.08400
H1815       H  0.64635185  0.05640905  0.56759688     0.08400
H1816       H  0.66011848  0.57911636  0.60404744     0.05200
C1817       C  0.64333210  0.97098688  0.84350884    -0.20600
C1818       C  0.66440736  0.99734157  0.83979210    -0.07100
C1819       C  0.66120592  0.52414681  0.86089796     0.13700
C1820       C  0.63761636  0.52355244  0.88621331    -0.20600
C1821       C  0.61714685  0.99674992  0.89104242    -0.07200
C1822       C  0.61965149  0.97026699  0.86887183     0.13700
C1823       C  0.59722913  0.94148549  0.87106684    -0.24000
H1824       H  0.64570131  0.95078278  0.82664229     0.15000
H1825       H  0.63562280  0.54400035  0.90279058     0.15000
C1826       C  0.68256729  0.55342867  0.85654737    -0.23900
H1827       H  0.60135874  0.92432602  0.85006605     0.05200
H1828       H  0.57225378  0.94868457  0.86901496     0.08500
H1829       H  0.60072945  0.92896157  0.89563915     0.08500
H1830       H  0.68027404  0.56257840  0.83004354     0.08400
H1831       H  0.70767262  0.54781197  0.86133327     0.08400
H1832       H  0.67634686  0.57250597  0.87467210     0.05200
C1833       C  0.86436436  0.52833387  0.61993114    -0.20600
C1834       C  0.87803557  0.49947796  0.61162786    -0.07100
C1835       C  0.86902222  0.97204470  0.63095904     0.13700
C1836       C  0.84670593  0.97435005  0.65745482    -0.20600
C1837       C  0.83277763  0.00296773  0.66499921    -0.07200
C1838       C  0.84182714  0.53041233  0.64623808     0.13700
C1839       C  0.82806080  0.56210497  0.65320626    -0.24000
H1840       H  0.87092746  0.54950913  0.60552217     0.15000
H1841       H  0.83941247  0.95345728  0.67200921     0.15000
C1842       C  0.88242528  0.94013150  0.62418116    -0.23900
H1843       H  0.81560542  0.57017851  0.62991961     0.05200
H1844       H  0.84758936  0.07965901  0.65981456     0.08500
H1845       H  0.81088430  0.56148683  0.67473961     0.08500
H1846       H  0.90871749  0.94176353  0.62670873     0.08400
H1847       H  0.87556714  0.43168989  0.59821792     0.08400
H1848       H  0.87328239  0.92196591  0.64264265     0.05200
C1849       C  0.85901588  0.52148402  0.88990049    -0.20600
C1850       C  0.87612524  0.99409642  0.89530579    -0.07100
C1851       C  0.86991853  0.96732613  0.87385436     0.13700
C1852       C  0.84656874  0.96865205  0.84816955    -0.20600
C1853       C  0.82928369  0.99585636  0.84340016    -0.07200
C1854       C  0.83569873  0.52270465  0.86434705     0.13700
C1855       C  0.81854104  0.55303667  0.86034223    -0.24000
H1856       H  0.86356034  0.54217336  0.90598645     0.15000
H1857       H  0.84161260  0.94830595  0.83168884     0.15000
C1858       C  0.88803369  0.93752577  0.87715735    -0.23900
H1859       H  0.83605200  0.57278259  0.85481843     0.05200
H1860       H  0.80593044  0.05832553  0.88452430     0.08500
H1861       H  0.80083269  0.55207352  0.83927449     0.08500
H1862       H  0.88290487  0.92620964  0.90229462     0.08400
H1863       H  0.91393063  0.44319628  0.87469237     0.08400
H1864       H  0.88119529  0.91991287  0.85694524     0.05200
C1865       C  0.52821712  0.64672588  0.65886477    -0.20600
C1866       C  0.00227957  0.66611719  0.66243256    -0.07100
C1867       C  0.97604734  0.66189576  0.64007257     0.13700
C1868       C  0.97680806  0.63903122  0.61391197    -0.20600
C1869       C  0.50324913  0.62026552  0.60931190    -0.07200
C1870       C  0.52913613  0.62386601  0.63258910     0.13700
C1871       C  0.55753630  0.60346873  0.63051317    -0.24000
H1872       H  0.54802861  0.64983693  0.67652817     0.15000
H1873       H  0.95674613  0.63621958  0.59655616     0.15000
C1874       C  0.94712508  0.68135003  0.64401362    -0.23900
H1875       H  0.57436904  0.60826401  0.65207062     0.05200
H1876       H  0.57072549  0.60835892  0.60636495     0.08500
H1877       H  0.54966155  0.57806020  0.63159691     0.08500
H1878       H  0.95364455  0.70681999  0.64023788     0.08400
H1879       H  0.93697813  0.67790716  0.67007509     0.08400
H1880       H  0.92839135  0.67443920  0.62499348     0.05200
C1881       C  0.52574201  0.64799555  0.84422869    -0.20600
C1882       C  0.99912392  0.66651860  0.84111677    -0.07100
C1883       C  0.97261576  0.66044605  0.86255405     0.13700
C1884       C  0.97371507  0.63650415  0.88731912    -0.20600
C1885       C  0.00069083  0.61837242  0.89130221    -0.07200
C1886       C  0.52694574  0.62394935  0.86894955     0.13700
C1887       C  0.55602168  0.60440916  0.87019451    -0.24000
H1888       H  0.54574818  0.65252903  0.82718873     0.15000
H1889       H  0.95342966  0.63228533  0.90402133     0.15000
C1890       C  0.94299480  0.67889217  0.85897688    -0.23900
H1891       H  0.57301417  0.61082761  0.84930778     0.05200
H1892       H  0.54897043  0.57891246  0.86721267     0.08500
H1893       H  0.56878704  0.60841909  0.89484030     0.08500
H1894       H  0.93344132  0.67612997  0.83252703     0.08400
H1895       H  0.94846807  0.70435659  0.86427054     0.08400
H1896       H  0.92417266  0.67052617  0.87715835     0.05200
C1897       C  0.97456577  0.85555784  0.61427414    -0.20600
C1898       C  0.49969154  0.87847542  0.61190524    -0.07100
C1899       C  0.52539004  0.87744810  0.63542627     0.13700
C1900       C  0.52533107  0.85339652  0.66021324    -0.20600
C1901       C  0.00055511  0.83019643  0.66196667    -0.07200
C1902       C  0.97479384  0.83131467  0.63881697     0.13700
C1903       C  0.94734063  0.80720818  0.64025438    -0.24000
H1904       H  0.95490106  0.85620698  0.59636061     0.15000
H1905       H  0.54480831  0.85253685  0.67835610     0.15000
C1906       C  0.55260601  0.90192617  0.63531166    -0.23900
H1907       H  0.92872096  0.81220905  0.62106351     0.05200
H1908       H  0.93633467  0.80747660  0.66610370     0.08500
H1909       H  0.95569654  0.78319207  0.63482734     0.08500
H1910       H  0.54332719  0.92602677  0.63754633     0.08400
H1911       H  0.56659681  0.90002568  0.61136825     0.08400
H1912       H  0.56918754  0.89866602  0.65707443     0.05200
C1913       C  0.52264026  0.87175324  0.87753108    -0.20600
C1914       C  0.99423430  0.87530467  0.89588831    -0.07100
C1915       C  0.96680413  0.85647481  0.88624045     0.13700
C1916       C  0.96878125  0.83473490  0.85900242    -0.20600
C1917       C  0.99723280  0.83128498  0.84110174    -0.07200
C1918       C  0.52441633  0.85006865  0.85031297     0.13700
C1919       C  0.55544610  0.84678510  0.83174043    -0.24000
H1920       H  0.54373693  0.88596173  0.88452504     0.15000
H1921       H  0.94811761  0.81993944  0.85182417     0.15000
C1922       C  0.93554732  0.85826847  0.90477863    -0.23900
H1923       H  0.57451289  0.86303729  0.84232019     0.05200
H1924       H  0.55239285  0.85242269  0.80417761     0.08500
H1925       H  0.56324227  0.82214406  0.83417693     0.08500
H1926       H  0.92627685  0.88226875  0.90193286     0.08400
H1927       H  0.93874260  0.85270925  0.93234316     0.08400
H1928       H  0.91724689  0.84110268  0.89428599     0.05200
loop_ 
_geom_bond_atom_site_label_1 
_geom_bond_atom_site_label_2 
_geom_bond_distance 
_geom_bond_site_symmetry_2 
_ccdc_geom_bond_type 
N1            N2   1.319       .  A
N1          N489   1.316   1_545  A
N1          Mn30   2.199       .  S
N2          C491   1.354   1_545  A
N3            N4   1.319       .  A
N3          N487   1.315       .  A
N3          Mn19   2.202       .  S
N4          C492   1.353       .  A
N5            N6   1.322       .  A
N5          N485   1.315   1_545  A
N5         Mn271   2.207       .  S
N6           C10   1.356   1_545  A
N7            N8   1.320       .  A
N7          N483   1.316       .  A
N7         Mn260   2.208       .  S
N8            C9   1.354       .  A
C9          N484   1.354       .  A
C9          C163   1.487       .  S
C10         N486   1.353       .  A
C10         C147   1.492       .  S
N11          N12   1.318       .  A
N11         N981   1.315   1_455  A
N11         Mn41   2.194       .  S
N12          C20   1.351   1_455  A
N13          N14   1.321       .  A
N13         N979   1.314       .  A
N13        Mn260   2.205       .  S
N14          C21   1.355       .  A
N15          N16   1.321       .  A
N15         N977   1.314   1_455  A
N15        Mn282   2.206       .  S
N16         C985   1.355   1_455  A
N17          N18   1.323       .  A
N17         N975   1.315       .  A
N17         Mn19   2.217       .  S
N18         C984   1.357       .  A
Mn19        N248   2.208   1_554  S
Mn19        N254   2.205   1_554  S
Mn19      Cl1489   2.551       .  S
C20         N982   1.357       .  A
C20         C211   1.486       .  S
C21         N980   1.355       .  A
C21         C227   1.493       .  S
N22          N23   1.321       .  A
N22         N992   1.315       .  A
N22        Mn271   2.205       .  S
N23         C995   1.355       .  A
N24          N25   1.320       .  A
N24         N990   1.314   1_455  A
N24         Mn42   2.199       .  S
N25         C996   1.353       .  A
N26          N27   1.321       .  A
N26         N988   1.314       .  A
N26         Mn30   2.209       .  S
N27          C32   1.356       .  A
N28          N29   1.321       .  A
N28         N986   1.315   1_455  A
N28        Mn283   2.211   1_554  S
N29          C31   1.355       .  A
Mn30        N246   2.207       .  S
Mn30        N263   2.205       .  S
Mn30      Cl1248   2.549   1_545  S
C31         N987   1.355   1_455  A
C31         C182   1.490       .  S
C32         N989   1.353       .  A
C32         C198   1.490       .  S
N33          N34   1.319       .  A
N33         N521   1.315       .  A
N33        Mn282   2.193       .  S
N34          C44   1.352       .  A
N35          N36   1.320       .  A
N35         N519   1.314   1_545  A
N35        Mn283   2.196   1_554  S
N36          C45   1.353       .  A
N37          N38   1.320       .  A
N37         N517   1.314       .  A
N37         Mn41   2.205       .  S
N38         C527   1.355       .  A
N39          N40   1.320       .  A
N39         N515   1.315   1_545  A
N39         Mn42   2.204       .  S
N40         C526   1.355   1_545  A
Mn41        N256   2.206   1_554  S
Mn41        N274   2.193   1_554  S
Mn41       Cl525   2.544   1_455  S
Mn42        N269   2.211       .  S
Mn42        N276   2.196       .  S
Mn42       Cl284   2.550   1_445  S
Cl43      Mn1465   2.551       .  S
Cl43      Mn1235   2.549   1_565  S
Cl43       Mn523   2.544   1_655  S
Cl43       Mn283   2.550   1_664  S
C44         N522   1.355       .  A
C44         C134   1.483       .  S
C45         N520   1.355   1_545  A
C45         C115   1.488       .  S
N46          C51   1.353       .  A
N46          C50   1.354       .  A
N46          H78   1.037       .  S
N47          C54   1.352       .  A
N47          C55   1.352       .  A
N48          C53   1.354       .  A
N48          C52   1.353       .  A
N48          H79   1.038       .  S
N49          C56   1.351       .  A
N49          C57   1.351       .  A
C50          C58   1.386       .  A
C50          C66   1.416       .  A
C51          C67   1.417       .  A
C51          C59   1.388       .  A
C52          C60   1.387       .  A
C52          C69   1.415       .  A
C53          C68   1.415       .  A
C53          C61   1.387       .  A
C54          C66   1.414       .  A
C54          C62   1.386       .  A
C55          C69   1.414       .  A
C55          C63   1.386       .  A
C56          C64   1.386       .  A
C56          C67   1.414       .  A
C57          C65   1.386       .  A
C57          C68   1.414       .  A
C58          C59   1.377       .  A
C58          H70   1.082       .  S
C59          H71   1.082       .  S
C60          C61   1.377       .  A
C60          H72   1.082       .  S
C61          H73   1.082       .  S
C62          C63   1.373       .  A
C62          H74   1.082       .  S
C63          H75   1.082       .  S
C64          C65   1.374       .  A
C64          H76   1.082       .  S
C65          H77   1.082       .  S
C66         C230   1.490       .  S
C67         C214   1.491       .  S
C68         C179   1.491       .  S
C69         C195   1.490       .  S
N80          C85   1.352       .  A
N80          C84   1.352       .  A
N80         H112   1.036       .  S
N81          C88   1.351       .  A
N81          C89   1.351       .  A
N82          C87   1.352       .  A
N82          C86   1.353       .  A
N82         H113   1.035       .  S
N83          C90   1.351       .  A
N83          C91   1.351       .  A
C84          C92   1.386       .  A
C84         C100   1.413       .  A
C85         C101   1.414       .  A
C85          C93   1.387       .  A
C86          C94   1.386       .  A
C86         C103   1.414       .  A
C87         C102   1.416       .  A
C87          C95   1.388       .  A
C88         C100   1.412       .  A
C88          C96   1.386       .  A
C89         C103   1.413       .  A
C89          C97   1.386       .  A
C90          C98   1.387       .  A
C90         C101   1.414       .  A
C91          C99   1.387       .  A
C91         C102   1.414       .  A
C92          C93   1.375       .  A
C92         H104   1.082       .  S
C93         H105   1.082       .  S
C94          C95   1.376       .  A
C94         H106   1.082       .  S
C95         H107   1.082       .  S
C96          C97   1.371       .  A
C96         H108   1.082       .  S
C97         H109   1.082       .  S
C98          C99   1.373       .  A
C98         H110   1.082       .  S
C99         H111   1.082       .  S
C100        C118   1.486       .  S
C101        C131   1.485       .  S
C102        C166   1.486       .  S
C103        C150   1.486       .  S
C114        C119   1.401       .  A
C114        C597   1.406       .  A
C114        H121   1.084       .  S
C115        C116   1.421       .  A
C115        C596   1.406   1_545  A
C116        C117   1.405       .  A
C116        C123   1.507       .  S
C117        C600   1.400       .  A
C117        H122   1.084       .  S
C118        C119   1.412       .  A
C118        C599   1.400       .  A
C119        C120   1.508       .  S
C120        H124   1.110       .  S
C120        H126   1.108       .  S
C120        H607   1.111       .  S
C123        H127   1.109       .  S
C123        H129   1.111       .  S
C123        H610   1.110       .  S
H125        C602   1.111       .  S
H128        C605   1.110       .  S
C130        C131   1.401       .  A
C130        C135   1.405       .  A
C130        H137   1.084       .  S
C131        C614   1.409       .  A
C132        C133   1.401       .  A
C132        C613   1.409   1_545  A
C132        C139   1.507       .  S
C133        C616   1.405   1_545  A
C133        H138   1.084       .  S
C134        C135   1.420       .  A
C134        C615   1.405       .  A
C135        C136   1.509       .  S
C136        H140   1.111       .  S
C136        H141   1.111       .  S
C136        H142   1.109       .  S
C139        H143   1.110       .  S
C139        H144   1.109       .  S
C139        H145   1.111       .  S
C146        C147   1.409   1_545  A
C146        C151   1.403       .  A
C146        H153   1.084       .  S
C147        C630   1.422       .  A
C148        C149   1.403       .  A
C148        C629   1.422       .  A
C148        C155   1.508       .  S
C149        C150   1.398       .  A
C149        H154   1.084       .  S
C150        C633   1.411       .  A
C151        C632   1.411       .  A
C151        C152   1.507       .  S
C152        H156   1.110       .  S
C152        H158   1.108       .  S
C152        H639   1.110       .  S
C155        H159   1.110       .  S
C155        H161   1.111       .  S
C155        H642   1.110       .  S
H157        C634   1.110       .  S
H160        C637   1.110       .  S
C162        C167   1.400       .  A
C162        C645   1.407   1_545  A
C162        H169   1.084       .  S
C163        C164   1.419       .  A
C163        C644   1.407       .  A
C164        C165   1.405       .  A
C164        C171   1.507       .  S
C165        C166   1.401       .  A
C165        H170   1.084       .  S
C166        C649   1.411       .  A
C167        C648   1.411   1_545  A
C167        C168   1.508       .  S
C168        H172   1.110       .  S
C168        H174   1.108       .  S
C168        H655   1.110       .  S
C171        H175   1.109       .  S
C171        H177   1.111       .  S
C171        H658   1.111       .  S
H173        C650   1.110       .  S
H176        C653   1.111       .  S
C178        C183   1.407       .  A
C178       C1143   1.402       .  A
C178        H185   1.084       .  S
C179        C180   1.411       .  A
C179       C1142   1.402       .  A
C180        C181   1.404       .  A
C180        C187   1.507       .  S
C181       C1146   1.407       .  A
C181        H186   1.084       .  S
C182        C183   1.420       .  A
C182       C1145   1.407   1_455  A
C183        C184   1.507       .  S
C184        H188   1.111       .  S
C184        H189   1.109       .  S
C184        H190   1.111       .  S
C187        H191   1.109       .  S
C187        H192   1.110       .  S
C187        H193   1.111       .  S
C194        C199   1.406       .  A
C194       C1159   1.401   1_455  A
C194        H201   1.084       .  S
C195        C196   1.410       .  A
C195       C1158   1.401       .  A
C196        C197   1.403       .  A
C196        C203   1.507       .  S
C197        C198   1.407       .  A
C197        H202   1.083       .  S
C198       C1163   1.420       .  A
C199       C1162   1.420       .  A
C199        C200   1.508       .  S
C200        H204   1.111       .  S
C200        H205   1.110       .  S
C200        H206   1.109       .  S
C203        H207   1.110       .  S
C203        H208   1.109       .  S
C203        H209   1.111       .  S
C210        C215   1.405       .  A
C210       C1175   1.405       .  A
C210        H217   1.084       .  S
C211        C212   1.420   1_655  A
C211       C1174   1.405       .  A
C212        C213   1.405       .  A
C212        C219   1.509       .  S
C213       C1178   1.401       .  A
C213        H218   1.084       .  S
C214        C215   1.413       .  A
C214       C1177   1.401       .  A
C215        C216   1.507       .  S
C216        H220   1.111       .  S
C216        H221   1.110       .  S
C216        H222   1.109       .  S
C219        H223   1.110       .  S
C219        H224   1.109       .  S
C219        H225   1.111       .  S
C226        C231   1.404       .  A
C226       C1191   1.408   1_455  A
C226        H233   1.084       .  S
C227        C228   1.422       .  A
C227       C1190   1.408       .  A
C228        C229   1.407       .  A
C228        C235   1.507       .  S
C229        C230   1.400       .  A
C229        H234   1.084       .  S
C230       C1195   1.409       .  A
C231       C1194   1.409   1_455  A
C231        C232   1.506       .  S
C232        H236   1.111       .  S
C232        H237   1.110       .  S
C232        H238   1.110       .  S
C235        H239   1.109       .  S
C235        H240   1.110       .  S
C235        H241   1.111       .  S
N242        N243   1.319       .  A
N242        N730   1.316   1_545  A
N242       Mn271   2.199   1_556  S
N243        C732   1.354   1_545  A
N244        N728   1.315       .  A
N244        N245   1.319       .  A
N244       Mn260   2.202       .  S
N245        C733   1.353       .  A
N246        N726   1.315   1_545  A
N246        N247   1.322       .  A
N247        C251   1.356   1_545  A
N248        N724   1.316       .  A
N248        N249   1.320       .  A
N249        C250   1.354       .  A
C250        N725   1.354       .  A
C250        C404   1.487       .  S
C251        N727   1.353       .  A
C251        C388   1.492       .  S
N252       N1222   1.315   1_455  A
N252        N253   1.318       .  A
N252       Mn282   2.194       .  S
N253        C261   1.351   1_455  A
N254        N255   1.321       .  A
N254       N1220   1.314       .  A
N255        C262   1.355       .  A
N256       N1218   1.314   1_455  A
N256        N257   1.321       .  A
N257       C1226   1.355   1_455  A
N258       N1216   1.315       .  A
N258        N259   1.323       .  A
N258       Mn260   2.217       .  S
N259       C1225   1.357       .  A
Mn260     Cl1730   2.551       .  S
C261       N1223   1.357       .  A
C261        C452   1.486       .  S
C262       N1221   1.355       .  A
C262        C468   1.493       .  S
N263        N264   1.321       .  A
N263       N1233   1.315       .  A
N264       C1236   1.355       .  A
N265       N1231   1.314   1_455  A
N265        N266   1.320       .  A
N265       Mn283   2.199       .  S
N266       C1237   1.353       .  A
N267       N1229   1.314       .  A
N267        N268   1.321       .  A
N267       Mn271   2.209   1_556  S
N268        C273   1.356       .  A
N269       N1227   1.315   1_455  A
N269        N270   1.321       .  A
N270        C272   1.355       .  A
Mn271     Cl1007   2.549   1_545  S
C272       N1228   1.355   1_455  A
C272        C423   1.490       .  S
C273       N1230   1.353       .  A
C273        C439   1.490       .  S
N274        N275   1.319       .  A
N274        N762   1.315       .  A
N275        C285   1.352       .  A
N276        N277   1.320       .  A
N276        N760   1.314   1_545  A
N277        C286   1.353       .  A
N278        N758   1.314       .  A
N278        N279   1.320       .  A
N278       Mn282   2.205       .  S
N279        C768   1.355       .  A
N280        N756   1.315   1_545  A
N280        N281   1.320       .  A
N280       Mn283   2.204       .  S
N281        C767   1.355   1_545  A
Mn282      Cl766   2.544   1_455  S
Cl284     Mn1706   2.551       .  S
Cl284      Mn994   2.549   1_565  S
Cl284      Mn764   2.544   1_655  S
C285        N763   1.355       .  A
C285        C375   1.483       .  S
C286        N761   1.355   1_545  A
C286        C356   1.488       .  S
N287        C292   1.353       .  A
N287        C291   1.354       .  A
N287        H319   1.037       .  S
N288        C295   1.352       .  A
N288        C296   1.352       .  A
N289        C294   1.354       .  A
N289        C293   1.353       .  A
N289        H320   1.038       .  S
N290        C297   1.351       .  A
N290        C298   1.351       .  A
C291        C299   1.386       .  A
C291        C307   1.416       .  A
C292        C308   1.417       .  A
C292        C300   1.388       .  A
C293        C301   1.387       .  A
C293        C310   1.415       .  A
C294        C309   1.415       .  A
C294        C302   1.387       .  A
C295        C307   1.414       .  A
C295        C303   1.386       .  A
C296        C310   1.414       .  A
C296        C304   1.386       .  A
C297        C305   1.386       .  A
C297        C308   1.414       .  A
C298        C306   1.386       .  A
C298        C309   1.414       .  A
C299        C300   1.377       .  A
C299        H311   1.082       .  S
C300        H312   1.082       .  S
C301        C302   1.377       .  A
C301        H313   1.082       .  S
C302        H314   1.082       .  S
C303        C304   1.373       .  A
C303        H315   1.082       .  S
C304        H316   1.082       .  S
C305        C306   1.374       .  A
C305        H317   1.082       .  S
C306        H318   1.082       .  S
C307        C471   1.490       .  S
C308        C455   1.491       .  S
C309        C420   1.491       .  S
C310        C436   1.490       .  S
N321        C326   1.352       .  A
N321        C325   1.352       .  A
N321        H353   1.036       .  S
N322        C329   1.351       .  A
N322        C330   1.351       .  A
N323        C328   1.352       .  A
N323        C327   1.353       .  A
N323        H354   1.035       .  S
N324        C331   1.351       .  A
N324        C332   1.351       .  A
C325        C333   1.386       .  A
C325        C341   1.413       .  A
C326        C342   1.414       .  A
C326        C334   1.387       .  A
C327        C335   1.386       .  A
C327        C344   1.414       .  A
C328        C343   1.416       .  A
C328        C336   1.388       .  A
C329        C341   1.412       .  A
C329        C337   1.386       .  A
C330        C344   1.413       .  A
C330        C338   1.386       .  A
C331        C339   1.387       .  A
C331        C342   1.414       .  A
C332        C340   1.387       .  A
C332        C343   1.414       .  A
C333        C334   1.375       .  A
C333        H345   1.082       .  S
C334        H346   1.082       .  S
C335        C336   1.376       .  A
C335        H347   1.082       .  S
C336        H348   1.082       .  S
C337        C338   1.371       .  A
C337        H349   1.082       .  S
C338        H350   1.082       .  S
C339        C340   1.373       .  A
C339        H351   1.082       .  S
C340        H352   1.082       .  S
C341        C359   1.486       .  S
C342        C372   1.485       .  S
C343        C407   1.486       .  S
C344        C391   1.486       .  S
C355        C838   1.406       .  A
C355        C360   1.401       .  A
C355        H362   1.084       .  S
C356        C837   1.406   1_545  A
C356        C357   1.421       .  A
C357        C358   1.405       .  A
C357        C364   1.507       .  S
C358        C841   1.400       .  A
C358        H363   1.084       .  S
C359        C840   1.400       .  A
C359        C360   1.412       .  A
C360        C361   1.508       .  S
C361        H365   1.110       .  S
C361        H848   1.111       .  S
C361        H367   1.108       .  S
C364        H368   1.109       .  S
C364        H851   1.110       .  S
C364        H370   1.111       .  S
H366        C843   1.111       .  S
H369        C846   1.110       .  S
C371        C372   1.401       .  A
C371        C376   1.405       .  A
C371        H378   1.084       .  S
C372        C855   1.409       .  A
C373        C854   1.409   1_545  A
C373        C374   1.401       .  A
C373        C380   1.507       .  S
C374        C857   1.405   1_545  A
C374        H379   1.084       .  S
C375        C856   1.405       .  A
C375        C376   1.420       .  A
C376        C377   1.509       .  S
C377        H381   1.111       .  S
C377        H382   1.111       .  S
C377        H383   1.109       .  S
C380        H384   1.110       .  S
C380        H385   1.109       .  S
C380        H386   1.111       .  S
C387        C388   1.409   1_545  A
C387        C392   1.403       .  A
C387        H394   1.084       .  S
C388        C871   1.422       .  A
C389        C870   1.422       .  A
C389        C390   1.403       .  A
C389        C396   1.508       .  S
C390        C391   1.398       .  A
C390        H395   1.084       .  S
C391        C874   1.411       .  A
C392        C873   1.411       .  A
C392        C393   1.507       .  S
C393        H397   1.110       .  S
C393        H880   1.110       .  S
C393        H399   1.108       .  S
C396        H400   1.110       .  S
C396        H883   1.110       .  S
C396        H402   1.111       .  S
H398        C875   1.110       .  S
H401        C878   1.110       .  S
C403        C886   1.407   1_545  A
C403        C408   1.400       .  A
C403        H410   1.084       .  S
C404        C885   1.407       .  A
C404        C405   1.419       .  A
C405        C406   1.405       .  A
C405        C412   1.507       .  S
C406        C407   1.401       .  A
C406        H411   1.084       .  S
C407        C890   1.411       .  A
C408        C889   1.411   1_545  A
C408        C409   1.508       .  S
C409        H413   1.110       .  S
C409        H896   1.110       .  S
C409        H415   1.108       .  S
C412        H416   1.109       .  S
C412        H899   1.111       .  S
C412        H418   1.111       .  S
H414        C891   1.110       .  S
H417        C894   1.111       .  S
C419       C1384   1.402       .  A
C419        C424   1.407       .  A
C419        H426   1.084       .  S
C420       C1383   1.402       .  A
C420        C421   1.411       .  A
C421        C422   1.404       .  A
C421        C428   1.507       .  S
C422       C1387   1.407       .  A
C422        H427   1.084       .  S
C423       C1386   1.407   1_455  A
C423        C424   1.420       .  A
C424        C425   1.507       .  S
C425        H429   1.111       .  S
C425        H430   1.109       .  S
C425        H431   1.111       .  S
C428        H432   1.109       .  S
C428        H433   1.110       .  S
C428        H434   1.111       .  S
C435       C1400   1.401   1_455  A
C435        C440   1.406       .  A
C435        H442   1.084       .  S
C436       C1399   1.401       .  A
C436        C437   1.410       .  A
C437        C438   1.403       .  A
C437        C444   1.507       .  S
C438        C439   1.407       .  A
C438        H443   1.083       .  S
C439       C1404   1.420       .  A
C440       C1403   1.420       .  A
C440        C441   1.508       .  S
C441        H445   1.111       .  S
C441        H446   1.110       .  S
C441        H447   1.109       .  S
C444        H448   1.110       .  S
C444        H449   1.109       .  S
C444        H450   1.111       .  S
C451       C1416   1.405       .  A
C451        C456   1.405       .  A
C451        H458   1.084       .  S
C452       C1415   1.405       .  A
C452        C453   1.420   1_655  A
C453        C454   1.405       .  A
C453        C460   1.509       .  S
C454       C1419   1.401       .  A
C454        H459   1.084       .  S
C455       C1418   1.401       .  A
C455        C456   1.413       .  A
C456        C457   1.507       .  S
C457        H461   1.111       .  S
C457        H462   1.110       .  S
C457        H463   1.109       .  S
C460        H464   1.110       .  S
C460        H465   1.109       .  S
C460        H466   1.111       .  S
C467       C1432   1.408   1_455  A
C467        C472   1.404       .  A
C467        H474   1.084       .  S
C468       C1431   1.408       .  A
C468        C469   1.422       .  A
C469        C470   1.407       .  A
C469        C476   1.507       .  S
C470        C471   1.400       .  A
C470        H475   1.084       .  S
C471       C1436   1.409       .  A
C472       C1435   1.409   1_455  A
C472        C473   1.506       .  S
C473        H477   1.111       .  S
C473        H478   1.110       .  S
C473        H479   1.110       .  S
C476        H480   1.109       .  S
C476        H481   1.110       .  S
C476        H482   1.111       .  S
N483        N484   1.319       .  A
N483       Mn512   2.199       .  S
N485        N486   1.319       .  A
N485       Mn501   2.202       .  S
N487        N488   1.322       .  A
N487       Mn753   2.207       .  S
N488        C492   1.356       .  A
N489        N490   1.320       .  A
N489       Mn742   2.208       .  S
N490        C491   1.354       .  A
C491        C645   1.487       .  S
C492        C629   1.492       .  S
N493       N1463   1.315   1_455  A
N493        N494   1.318       .  A
N493       Mn523   2.194       .  S
N494        C502   1.351   1_455  A
N495        N496   1.321       .  A
N495       N1461   1.314       .  A
N495       Mn742   2.205       .  S
N496        C503   1.355       .  A
N497       N1459   1.314   1_455  A
N497        N498   1.321       .  A
N497       Mn764   2.206       .  S
N498       C1467   1.355   1_455  A
N499       N1457   1.315       .  A
N499        N500   1.323       .  A
N499       Mn501   2.217       .  S
N500       C1466   1.358       .  A
Mn501       N730   2.208   1_554  S
Mn501       N736   2.205   1_554  S
Mn501     Cl1007   2.551       .  S
C502       N1464   1.358       .  A
C502        C693   1.486       .  S
C503       N1462   1.355       .  A
C503        C709   1.493       .  S
N504        N505   1.321       .  A
N504       N1474   1.315       .  A
N504       Mn753   2.205       .  S
N505       C1477   1.355       .  A
N506       N1472   1.314   1_455  A
N506        N507   1.320       .  A
N506       Mn524   2.199       .  S
N507       C1478   1.353       .  A
N508       N1470   1.314       .  A
N508        N509   1.321       .  A
N508       Mn512   2.209       .  S
N509        C514   1.356       .  A
N510       N1468   1.315   1_455  A
N510        N511   1.321       .  A
N510       Mn765   2.211   1_554  S
N511        C513   1.355       .  A
Mn512       N728   2.207       .  S
Mn512       N745   2.205       .  S
Mn512     Cl1730   2.549       .  S
C513       N1469   1.355   1_455  A
C513        C664   1.490       .  S
C514       N1471   1.353       .  A
C514        C680   1.490       .  S
N515        N516   1.319       .  A
N515       Mn764   2.192       .  S
N516        C526   1.352       .  A
N517        N518   1.319       .  A
N517       Mn765   2.196   1_554  S
N518        C527   1.353       .  A
N519        N520   1.320       .  A
N519       Mn523   2.205       .  S
N521        N522   1.320       .  A
N521       Mn524   2.204       .  S
Mn523       N738   2.206   1_554  S
Mn523       N756   2.192   1_554  S
Mn524       N751   2.211       .  S
Mn524       N758   2.196       .  S
Mn524      Cl766   2.550   1_455  S
Cl525      Mn983   2.551       .  S
Cl525     Mn1717   2.549       .  S
Cl525      Mn765   2.550   1_654  S
C526        C616   1.483       .  S
C527        C597   1.488       .  S
N528        C533   1.353       .  A
N528        C532   1.354       .  A
N528        H560   1.037       .  S
N529        C536   1.352       .  A
N529        C537   1.352       .  A
N530        C535   1.354       .  A
N530        C534   1.353       .  A
N530        H561   1.038       .  S
N531        C538   1.351       .  A
N531        C539   1.351       .  A
C532        C540   1.386       .  A
C532        C548   1.416       .  A
C533        C549   1.417       .  A
C533        C541   1.388       .  A
C534        C542   1.387       .  A
C534        C551   1.415       .  A
C535        C550   1.415       .  A
C535        C543   1.387       .  A
C536        C548   1.414       .  A
C536        C544   1.386       .  A
C537        C551   1.414       .  A
C537        C545   1.386       .  A
C538        C546   1.386       .  A
C538        C549   1.414       .  A
C539        C547   1.386       .  A
C539        C550   1.414       .  A
C540        C541   1.377       .  A
C540        H552   1.082       .  S
C541        H553   1.082       .  S
C542        C543   1.377       .  A
C542        H554   1.082       .  S
C543        H555   1.082       .  S
C544        C545   1.373       .  A
C544        H556   1.082       .  S
C545        H557   1.082       .  S
C546        C547   1.374       .  A
C546        H558   1.082       .  S
C547        H559   1.082       .  S
C548        C712   1.490       .  S
C549        C696   1.491       .  S
C550        C661   1.491       .  S
C551        C677   1.490       .  S
N562        C567   1.352   1_565  A
N562        C566   1.352   1_565  A
N562        H594   1.036       .  S
N563        C570   1.351   1_545  A
N563        C571   1.351   1_545  A
N564        C569   1.352   1_565  A
N564        C568   1.353   1_565  A
N564        H595   1.035       .  S
N565        C572   1.351       .  A
N565        C573   1.351       .  A
C566        C574   1.386       .  A
C566        C582   1.413       .  A
C567        C583   1.414   1_545  A
C567        C575   1.387       .  A
C568        C576   1.386       .  A
C568        C585   1.414       .  A
C569        C584   1.416   1_545  A
C569        C577   1.388       .  A
C570        C582   1.412   1_565  A
C570        C578   1.386       .  A
C571        C585   1.413   1_565  A
C571        C579   1.386       .  A
C572        C580   1.387       .  A
C572        C583   1.414       .  A
C573        C581   1.387       .  A
C573        C584   1.414       .  A
C574        C575   1.375       .  A
C574        H586   1.082       .  S
C575        H587   1.082       .  S
C576        C577   1.376       .  A
C576        H588   1.082       .  S
C577        H589   1.082       .  S
C578        C579   1.371       .  A
C578        H590   1.082       .  S
C579        H591   1.082       .  S
C580        C581   1.373       .  A
C580        H592   1.082       .  S
C581        H593   1.082       .  S
C582        C600   1.486       .  S
C583        C613   1.485       .  S
C584        C648   1.486       .  S
C585        C632   1.486       .  S
C596        C601   1.401       .  A
C596        H603   1.084       .  S
C597        C598   1.421       .  A
C598        C599   1.405       .  A
C598        C605   1.507       .  S
C599        H604   1.084       .  S
C600        C601   1.412   1_545  A
C601        C602   1.508       .  S
C602        H606   1.110       .  S
C602        H608   1.108       .  S
C605        H609   1.109       .  S
C605        H611   1.111       .  S
C612        C613   1.401       .  A
C612        C617   1.405       .  A
C612        H619   1.084       .  S
C614        C615   1.401       .  A
C614        C621   1.507       .  S
C615        H620   1.084       .  S
C616        C617   1.420       .  A
C617        C618   1.509       .  S
C618        H622   1.111       .  S
C618        H623   1.111       .  S
C618        H624   1.109       .  S
C621        H625   1.110       .  S
C621        H626   1.109       .  S
C621        H627   1.111       .  S
C628        C629   1.409       .  A
C628        C633   1.403       .  A
C628        H635   1.084       .  S
C630        C631   1.403       .  A
C630        C637   1.508       .  S
C631        C632   1.398   1_565  A
C631        H636   1.084       .  S
C633        C634   1.507       .  S
C634        H638   1.110       .  S
C634        H640   1.108       .  S
C637        H641   1.110       .  S
C637        H643   1.111       .  S
C644        C649   1.400       .  A
C644        H651   1.084       .  S
C645        C646   1.419       .  A
C646        C647   1.405       .  A
C646        C653   1.507       .  S
C647        C648   1.401       .  A
C647        H652   1.084       .  S
C649        C650   1.508       .  S
C650        H654   1.110       .  S
C650        H656   1.108       .  S
C653        H657   1.109       .  S
C653        H659   1.111       .  S
C660       C1625   1.401       .  A
C660        C665   1.407       .  A
C660        H667   1.084       .  S
C661       C1624   1.401       .  A
C661        C662   1.411       .  A
C662        C663   1.404       .  A
C662        C669   1.507       .  S
C663       C1628   1.407       .  A
C663        H668   1.084       .  S
C664       C1627   1.407   1_455  A
C664        C665   1.420       .  A
C665        C666   1.507       .  S
C666        H670   1.111       .  S
C666        H671   1.109       .  S
C666        H672   1.111       .  S
C669        H673   1.109       .  S
C669        H674   1.110       .  S
C669        H675   1.111       .  S
C676       C1641   1.401   1_455  A
C676        C681   1.406       .  A
C676        H683   1.084       .  S
C677       C1640   1.401       .  A
C677        C678   1.410       .  A
C678        C679   1.403       .  A
C678        C685   1.507       .  S
C679        C680   1.407       .  A
C679        H684   1.083       .  S
C680       C1645   1.420       .  A
C681       C1644   1.420       .  A
C681        C682   1.508       .  S
C682        H686   1.111       .  S
C682        H687   1.110       .  S
C682        H688   1.109       .  S
C685        H689   1.110       .  S
C685        H690   1.109       .  S
C685        H691   1.111       .  S
C692       C1657   1.405       .  A
C692        C697   1.405       .  A
C692        H699   1.084       .  S
C693       C1656   1.405       .  A
C693        C694   1.420   1_655  A
C694        C695   1.405       .  A
C694        C701   1.509       .  S
C695       C1660   1.401       .  A
C695        H700   1.084       .  S
C696       C1659   1.401       .  A
C696        C697   1.413       .  A
C697        C698   1.507       .  S
C698        H702   1.111       .  S
C698        H703   1.110       .  S
C698        H704   1.109       .  S
C701        H705   1.110       .  S
C701        H706   1.109       .  S
C701        H707   1.111       .  S
C708       C1673   1.408   1_455  A
C708        C713   1.404       .  A
C708        H715   1.084       .  S
C709       C1672   1.408       .  A
C709        C710   1.422       .  A
C710        C711   1.407       .  A
C710        C717   1.507       .  S
C711        C712   1.400       .  A
C711        H716   1.084       .  S
C712       C1677   1.409       .  A
C713       C1676   1.409   1_455  A
C713        C714   1.506       .  S
C714        H718   1.111       .  S
C714        H719   1.110       .  S
C714        H720   1.110       .  S
C717        H721   1.109       .  S
C717        H722   1.110       .  S
C717        H723   1.111       .  S
N724        N725   1.319       .  A
N724       Mn753   2.199   1_556  S
N726        N727   1.319       .  A
N726       Mn742   2.202       .  S
N728        N729   1.322       .  A
N729        C733   1.356       .  A
N730        N731   1.320       .  A
N731        C732   1.354       .  A
C732        C886   1.487       .  S
C733        C870   1.492       .  S
N734       N1704   1.315   1_455  A
N734        N735   1.318       .  A
N734       Mn764   2.194       .  S
N735        C743   1.351   1_455  A
N736        N737   1.321       .  A
N736       N1702   1.314       .  A
N737        C744   1.355       .  A
N738       N1700   1.314   1_455  A
N738        N739   1.321       .  A
N739       C1708   1.355   1_455  A
N740       N1698   1.315       .  A
N740        N741   1.323       .  A
N740       Mn742   2.217       .  S
N741       C1707   1.358       .  A
Mn742     Cl1248   2.551       .  S
C743       N1705   1.358       .  A
C743        C934   1.486       .  S
C744       N1703   1.355       .  A
C744        C950   1.493       .  S
N745        N746   1.321       .  A
N745       N1715   1.315       .  A
N746       C1718   1.355       .  A
N747       N1713   1.314   1_455  A
N747        N748   1.320       .  A
N747       Mn765   2.199       .  S
N748       C1719   1.353       .  A
N749       N1711   1.314       .  A
N749        N750   1.321       .  A
N749       Mn753   2.209   1_556  S
N750        C755   1.356       .  A
N751       N1709   1.315   1_455  A
N751        N752   1.321       .  A
N752        C754   1.355       .  A
Mn753     Cl1489   2.549       .  S
C754       N1710   1.355   1_455  A
C754        C905   1.490       .  S
C755       N1712   1.353       .  A
C755        C921   1.490       .  S
N756        N757   1.319       .  A
N757        C767   1.352       .  A
N758        N759   1.320       .  A
N759        C768   1.353       .  A
N760        N761   1.320       .  A
N760       Mn764   2.205       .  S
N762        N763   1.320       .  A
N762       Mn765   2.204       .  S
Cl766     Mn1224   2.551       .  S
Cl766     Mn1476   2.549       .  S
C767        C857   1.483       .  S
C768        C838   1.488       .  S
N769        C774   1.353       .  A
N769        C773   1.354       .  A
N769        H801   1.037       .  S
N770        C777   1.352       .  A
N770        C778   1.352       .  A
N771        C776   1.354       .  A
N771        C775   1.353       .  A
N771        H802   1.038       .  S
N772        C779   1.351       .  A
N772        C780   1.351       .  A
C773        C781   1.386       .  A
C773        C789   1.416       .  A
C774        C790   1.417       .  A
C774        C782   1.388       .  A
C775        C783   1.387       .  A
C775        C792   1.415       .  A
C776        C791   1.415       .  A
C776        C784   1.387       .  A
C777        C789   1.414       .  A
C777        C785   1.386       .  A
C778        C792   1.414       .  A
C778        C786   1.386       .  A
C779        C787   1.386       .  A
C779        C790   1.414       .  A
C780        C788   1.386       .  A
C780        C791   1.414       .  A
C781        C782   1.377       .  A
C781        H793   1.082       .  S
C782        H794   1.082       .  S
C783        C784   1.377       .  A
C783        H795   1.082       .  S
C784        H796   1.082       .  S
C785        C786   1.373       .  A
C785        H797   1.082       .  S
C786        H798   1.082       .  S
C787        C788   1.374       .  A
C787        H799   1.082       .  S
C788        H800   1.082       .  S
C789        C953   1.490       .  S
C790        C937   1.491       .  S
C791        C902   1.491       .  S
C792        C918   1.490       .  S
N803        C808   1.352   1_565  A
N803        C807   1.352   1_565  A
N803        H835   1.036       .  S
N804        C811   1.351   1_545  A
N804        C812   1.351   1_545  A
N805        C810   1.352   1_565  A
N805        C809   1.353   1_565  A
N805        H836   1.035       .  S
N806        C813   1.351       .  A
N806        C814   1.351       .  A
C807        C815   1.386       .  A
C807        C823   1.413       .  A
C808        C824   1.414   1_545  A
C808        C816   1.387       .  A
C809        C817   1.386       .  A
C809        C826   1.414       .  A
C810        C825   1.416   1_545  A
C810        C818   1.388       .  A
C811        C823   1.412   1_565  A
C811        C819   1.386       .  A
C812        C826   1.413   1_565  A
C812        C820   1.386       .  A
C813        C821   1.387       .  A
C813        C824   1.414       .  A
C814        C822   1.387       .  A
C814        C825   1.414       .  A
C815        C816   1.375       .  A
C815        H827   1.082       .  S
C816        H828   1.082       .  S
C817        C818   1.376       .  A
C817        H829   1.082       .  S
C818        H830   1.082       .  S
C819        C820   1.371       .  A
C819        H831   1.082       .  S
C820        H832   1.082       .  S
C821        C822   1.373       .  A
C821        H833   1.082       .  S
C822        H834   1.082       .  S
C823        C841   1.486       .  S
C824        C854   1.485       .  S
C825        C889   1.486       .  S
C826        C873   1.486       .  S
C837        C842   1.401       .  A
C837        H844   1.084       .  S
C838        C839   1.421       .  A
C839        C840   1.405       .  A
C839        C846   1.507       .  S
C840        H845   1.084       .  S
C841        C842   1.412   1_545  A
C842        C843   1.508       .  S
C843        H847   1.110       .  S
C843        H849   1.108       .  S
C846        H850   1.109       .  S
C846        H852   1.111       .  S
C853        C854   1.401       .  A
C853        C858   1.405       .  A
C853        H860   1.084       .  S
C855        C856   1.401       .  A
C855        C862   1.507       .  S
C856        H861   1.084       .  S
C857        C858   1.420       .  A
C858        C859   1.509       .  S
C859        H863   1.111       .  S
C859        H864   1.111       .  S
C859        H865   1.109       .  S
C862        H866   1.110       .  S
C862        H867   1.109       .  S
C862        H868   1.111       .  S
C869        C870   1.409       .  A
C869        C874   1.403       .  A
C869        H876   1.084       .  S
C871        C872   1.403       .  A
C871        C878   1.508       .  S
C872        C873   1.398   1_565  A
C872        H877   1.084       .  S
C874        C875   1.507       .  S
C875        H879   1.110       .  S
C875        H881   1.108       .  S
C878        H882   1.110       .  S
C878        H884   1.111       .  S
C885        C890   1.400       .  A
C885        H892   1.084       .  S
C886        C887   1.419       .  A
C887        C888   1.405       .  A
C887        C894   1.507       .  S
C888        C889   1.401       .  A
C888        H893   1.084       .  S
C890        C891   1.508       .  S
C891        H895   1.110       .  S
C891        H897   1.108       .  S
C894        H898   1.109       .  S
C894        H900   1.111       .  S
C901       C1866   1.401       .  A
C901        C906   1.407       .  A
C901        H908   1.084       .  S
C902       C1865   1.401       .  A
C902        C903   1.411       .  A
C903        C904   1.404       .  A
C903        C910   1.507       .  S
C904       C1869   1.407       .  A
C904        H909   1.084       .  S
C905       C1868   1.407   1_455  A
C905        C906   1.420       .  A
C906        C907   1.507       .  S
C907        H911   1.111       .  S
C907        H912   1.109       .  S
C907        H913   1.111       .  S
C910        H914   1.109       .  S
C910        H915   1.110       .  S
C910        H916   1.111       .  S
C917       C1882   1.401   1_455  A
C917        C922   1.406       .  A
C917        H924   1.084       .  S
C918       C1881   1.401       .  A
C918        C919   1.410       .  A
C919        C920   1.403       .  A
C919        C926   1.507       .  S
C920        C921   1.407       .  A
C920        H925   1.083       .  S
C921       C1886   1.420       .  A
C922       C1885   1.420       .  A
C922        C923   1.508       .  S
C923        H927   1.111       .  S
C923        H928   1.110       .  S
C923        H929   1.109       .  S
C926        H930   1.110       .  S
C926        H931   1.109       .  S
C926        H932   1.111       .  S
C933       C1898   1.405       .  A
C933        C938   1.405       .  A
C933        H940   1.084       .  S
C934       C1897   1.405       .  A
C934        C935   1.420   1_655  A
C935        C936   1.405       .  A
C935        C942   1.509       .  S
C936       C1901   1.401       .  A
C936        H941   1.084       .  S
C937       C1900   1.401       .  A
C937        C938   1.413       .  A
C938        C939   1.507       .  S
C939        H943   1.111       .  S
C939        H944   1.110       .  S
C939        H945   1.109       .  S
C942        H946   1.110       .  S
C942        H947   1.109       .  S
C942        H948   1.111       .  S
C949       C1914   1.408   1_455  A
C949        C954   1.404       .  A
C949        H956   1.084       .  S
C950       C1913   1.408       .  A
C950        C951   1.422       .  A
C951        C952   1.407       .  A
C951        C958   1.507       .  S
C952        C953   1.400       .  A
C952        H957   1.084       .  S
C953       C1918   1.409       .  A
C954       C1917   1.409   1_455  A
C954        C955   1.506       .  S
C955        H959   1.111       .  S
C955        H960   1.110       .  S
C955        H961   1.110       .  S
C958        H962   1.109       .  S
C958        H963   1.110       .  S
C958        H964   1.111       .  S
N965        N966   1.319       .  A
N965       N1453   1.316   1_545  A
N965       Mn994   2.199       .  S
N966       C1455   1.354   1_545  A
N967       N1451   1.315       .  A
N967        N968   1.319       .  A
N967       Mn983   2.202       .  S
N968       C1456   1.353       .  A
N969       N1449   1.315   1_545  A
N969        N970   1.322       .  A
N969      Mn1235   2.207       .  S
N970        C974   1.356   1_545  A
N971       N1447   1.316       .  A
N971        N972   1.320       .  A
N971      Mn1224   2.208       .  S
N972        C973   1.354       .  A
C973       N1448   1.354       .  A
C973       C1127   1.487       .  S
C974       N1450   1.353       .  A
C974       C1111   1.492       .  S
N975        N976   1.318       .  A
N975      Mn1005   2.194       .  S
N976        C984   1.351       .  A
N977        N978   1.321       .  A
N977      Mn1224   2.205       .  S
N978        C985   1.355       .  A
N979        N980   1.321       .  A
N979      Mn1246   2.206       .  S
N981        N982   1.323       .  A
N981       Mn983   2.217       .  S
Mn983      N1212   2.208   1_554  S
Mn983      N1218   2.205   1_554  S
C984       C1175   1.486       .  S
C985       C1191   1.493       .  S
N986        N987   1.321       .  A
N986      Mn1235   2.205       .  S
N988        N989   1.320       .  A
N988      Mn1006   2.199       .  S
N990        N991   1.321       .  A
N990       Mn994   2.209       .  S
N991        C996   1.356   1_655  A
N992        N993   1.321       .  A
N992      Mn1247   2.211   1_554  S
N993        C995   1.355       .  A
Mn994      N1210   2.207       .  S
Mn994      N1227   2.205       .  S
C995       C1146   1.490       .  S
C996       C1162   1.490       .  S
N997        N998   1.319       .  A
N997       N1485   1.315       .  A
N997      Mn1246   2.193       .  S
N998       C1008   1.352       .  A
N999       N1000   1.320       .  A
N999       N1483   1.314   1_545  A
N999      Mn1247   2.196   1_554  S
N1000      C1009   1.353       .  A
N1001      N1481   1.314       .  A
N1001      N1002   1.320       .  A
N1001     Mn1005   2.205       .  S
N1002      C1491   1.355       .  A
N1003      N1479   1.315   1_545  A
N1003      N1004   1.320       .  A
N1003     Mn1006   2.204       .  S
N1004      C1490   1.355   1_545  A
Mn1005     N1220   2.206   1_554  S
Mn1005     N1238   2.193   1_554  S
Mn1005    Cl1489   2.544       .  S
Mn1006     N1233   2.211       .  S
Mn1006     N1240   2.196       .  S
Mn1006    Cl1248   2.550   1_545  S
Cl1007    Mn1487   2.544       .  S
Cl1007    Mn1247   2.550   1_564  S
C1008      N1486   1.355       .  A
C1008      C1098   1.483       .  S
C1009      N1484   1.355   1_545  A
C1009      C1079   1.488       .  S
N1010      C1015   1.353   1_455  A
N1010      C1014   1.354   1_455  A
N1010      H1042   1.037       .  S
N1011      C1018   1.352   1_655  A
N1011      C1019   1.352   1_655  A
N1012      C1017   1.354   1_455  A
N1012      C1016   1.353   1_455  A
N1012      H1043   1.038       .  S
N1013      C1020   1.351       .  A
N1013      C1021   1.351       .  A
C1014      C1022   1.386       .  A
C1014      C1030   1.416       .  A
C1015      C1031   1.417   1_655  A
C1015      C1023   1.388       .  A
C1016      C1024   1.387       .  A
C1016      C1033   1.415       .  A
C1017      C1032   1.415   1_655  A
C1017      C1025   1.387       .  A
C1018      C1030   1.414   1_455  A
C1018      C1026   1.386       .  A
C1019      C1033   1.414   1_455  A
C1019      C1027   1.386       .  A
C1020      C1028   1.386       .  A
C1020      C1031   1.414       .  A
C1021      C1029   1.386       .  A
C1021      C1032   1.414       .  A
C1022      C1023   1.377       .  A
C1022      H1034   1.082       .  S
C1023      H1035   1.082       .  S
C1024      C1025   1.377       .  A
C1024      H1036   1.082       .  S
C1025      H1037   1.082       .  S
C1026      C1027   1.373       .  A
C1026      H1038   1.082       .  S
C1027      H1039   1.082       .  S
C1028      C1029   1.374       .  A
C1028      H1040   1.082       .  S
C1029      H1041   1.082       .  S
C1030      C1194   1.490       .  S
C1031      C1178   1.491       .  S
C1032      C1143   1.491       .  S
C1033      C1159   1.490       .  S
N1044      C1049   1.352       .  A
N1044      C1048   1.352       .  A
N1044      H1076   1.036       .  S
N1045      C1052   1.351       .  A
N1045      C1053   1.351       .  A
N1046      C1051   1.352       .  A
N1046      C1050   1.353       .  A
N1046      H1077   1.035       .  S
N1047      C1054   1.351       .  A
N1047      C1055   1.351       .  A
C1048      C1056   1.386       .  A
C1048      C1064   1.413       .  A
C1049      C1065   1.414       .  A
C1049      C1057   1.387       .  A
C1050      C1058   1.386       .  A
C1050      C1067   1.414       .  A
C1051      C1066   1.416       .  A
C1051      C1059   1.388       .  A
C1052      C1064   1.412       .  A
C1052      C1060   1.386       .  A
C1053      C1067   1.413       .  A
C1053      C1061   1.386       .  A
C1054      C1062   1.387       .  A
C1054      C1065   1.414       .  A
C1055      C1063   1.387       .  A
C1055      C1066   1.414       .  A
C1056      C1057   1.375       .  A
C1056      H1068   1.082       .  S
C1057      H1069   1.082       .  S
C1058      C1059   1.376       .  A
C1058      H1070   1.082       .  S
C1059      H1071   1.082       .  S
C1060      C1061   1.371       .  A
C1060      H1072   1.082       .  S
C1061      H1073   1.082       .  S
C1062      C1063   1.373       .  A
C1062      H1074   1.082       .  S
C1063      H1075   1.082       .  S
C1064      C1082   1.486       .  S
C1065      C1095   1.485       .  S
C1066      C1130   1.486       .  S
C1067      C1114   1.486       .  S
C1078      C1561   1.406       .  A
C1078      C1083   1.401       .  A
C1078      H1085   1.084       .  S
C1079      C1560   1.406   1_545  A
C1079      C1080   1.421       .  A
C1080      C1081   1.405       .  A
C1080      C1087   1.507       .  S
C1081      C1564   1.400       .  A
C1081      H1086   1.084       .  S
C1082      C1563   1.400       .  A
C1082      C1083   1.412       .  A
C1083      C1084   1.508       .  S
C1084      H1088   1.110       .  S
C1084      H1571   1.111       .  S
C1084      H1090   1.108       .  S
C1087      H1091   1.109       .  S
C1087      H1574   1.110       .  S
C1087      H1093   1.111       .  S
H1089      C1566   1.111       .  S
H1092      C1569   1.110       .  S
C1094      C1095   1.401       .  A
C1094      C1099   1.405       .  A
C1094      H1101   1.084       .  S
C1095      C1578   1.409       .  A
C1096      C1577   1.409   1_545  A
C1096      C1097   1.401       .  A
C1096      C1103   1.507       .  S
C1097      C1580   1.405   1_545  A
C1097      H1102   1.084       .  S
C1098      C1579   1.405       .  A
C1098      C1099   1.420       .  A
C1099      C1100   1.509       .  S
C1100      H1104   1.111       .  S
C1100      H1105   1.111       .  S
C1100      H1106   1.109       .  S
C1103      H1107   1.110       .  S
C1103      H1108   1.109       .  S
C1103      H1109   1.111       .  S
C1110      C1111   1.409   1_545  A
C1110      C1115   1.403       .  A
C1110      H1117   1.084       .  S
C1111      C1594   1.422       .  A
C1112      C1593   1.422       .  A
C1112      C1113   1.403       .  A
C1112      C1119   1.508       .  S
C1113      C1114   1.398       .  A
C1113      H1118   1.084       .  S
C1114      C1597   1.411       .  A
C1115      C1596   1.411       .  A
C1115      C1116   1.507       .  S
C1116      H1120   1.110       .  S
C1116      H1603   1.110       .  S
C1116      H1122   1.108       .  S
C1119      H1123   1.110       .  S
C1119      H1606   1.110       .  S
C1119      H1125   1.111       .  S
H1121      C1598   1.110       .  S
H1124      C1601   1.110       .  S
C1126      C1609   1.407   1_545  A
C1126      C1131   1.400       .  A
C1126      H1133   1.084       .  S
C1127      C1608   1.407       .  A
C1127      C1128   1.419       .  A
C1128      C1129   1.405       .  A
C1128      C1135   1.507       .  S
C1129      C1130   1.401       .  A
C1129      H1134   1.084       .  S
C1130      C1613   1.411       .  A
C1131      C1612   1.411   1_545  A
C1131      C1132   1.508       .  S
C1132      H1136   1.110       .  S
C1132      H1619   1.110       .  S
C1132      H1138   1.108       .  S
C1135      H1139   1.109       .  S
C1135      H1622   1.111       .  S
C1135      H1141   1.111       .  S
H1137      C1614   1.110       .  S
H1140      C1617   1.111       .  S
C1142      C1147   1.407       .  A
C1142      H1149   1.084       .  S
C1143      C1144   1.411   1_455  A
C1144      C1145   1.404       .  A
C1144      C1151   1.507       .  S
C1145      H1150   1.084       .  S
C1146      C1147   1.420       .  A
C1147      C1148   1.507       .  S
C1148      H1152   1.111       .  S
C1148      H1153   1.109       .  S
C1148      H1154   1.111       .  S
C1151      H1155   1.109       .  S
C1151      H1156   1.110       .  S
C1151      H1157   1.111       .  S
C1158      C1163   1.406       .  A
C1158      H1165   1.084       .  S
C1159      C1160   1.410       .  A
C1160      C1161   1.403       .  A
C1160      C1167   1.507       .  S
C1161      C1162   1.407   1_655  A
C1161      H1166   1.083       .  S
C1163      C1164   1.508       .  S
C1164      H1168   1.111       .  S
C1164      H1169   1.110       .  S
C1164      H1170   1.109       .  S
C1167      H1171   1.110       .  S
C1167      H1172   1.109       .  S
C1167      H1173   1.111       .  S
C1174      C1179   1.405       .  A
C1174      H1181   1.084       .  S
C1175      C1176   1.420       .  A
C1176      C1177   1.405       .  A
C1176      C1183   1.509       .  S
C1177      H1182   1.084       .  S
C1178      C1179   1.413   1_455  A
C1179      C1180   1.507       .  S
C1180      H1184   1.111       .  S
C1180      H1185   1.110       .  S
C1180      H1186   1.109       .  S
C1183      H1187   1.110       .  S
C1183      H1188   1.109       .  S
C1183      H1189   1.111       .  S
C1190      C1195   1.404       .  A
C1190      H1197   1.084       .  S
C1191      C1192   1.422       .  A
C1192      C1193   1.407       .  A
C1192      C1199   1.507       .  S
C1193      C1194   1.400       .  A
C1193      H1198   1.084       .  S
C1195      C1196   1.506       .  S
C1196      H1200   1.111       .  S
C1196      H1201   1.110       .  S
C1196      H1202   1.110       .  S
C1199      H1203   1.109       .  S
C1199      H1204   1.110       .  S
C1199      H1205   1.111       .  S
N1206      N1207   1.319       .  A
N1206      N1694   1.316   1_545  A
N1206     Mn1235   2.199   1_556  S
N1207      C1696   1.354   1_545  A
N1208      N1692   1.315       .  A
N1208      N1209   1.319       .  A
N1208     Mn1224   2.202       .  S
N1209      C1697   1.353       .  A
N1210      N1690   1.315   1_545  A
N1210      N1211   1.322       .  A
N1211      C1215   1.356   1_545  A
N1212      N1688   1.316       .  A
N1212      N1213   1.320       .  A
N1213      C1214   1.354       .  A
C1214      N1689   1.354       .  A
C1214      C1368   1.487       .  S
C1215      N1691   1.353       .  A
C1215      C1352   1.492       .  S
N1216      N1217   1.318       .  A
N1216     Mn1246   2.194       .  S
N1217      C1225   1.351       .  A
N1218      N1219   1.321       .  A
N1219      C1226   1.355       .  A
N1220      N1221   1.321       .  A
N1222      N1223   1.323       .  A
N1222     Mn1224   2.217       .  S
C1225      C1416   1.486       .  S
C1226      C1432   1.493       .  S
N1227      N1228   1.321       .  A
N1229      N1230   1.320       .  A
N1229     Mn1247   2.199       .  S
N1231      N1232   1.321       .  A
N1231     Mn1235   2.209   1_556  S
N1232      C1237   1.356   1_655  A
N1233      N1234   1.321       .  A
N1234      C1236   1.355       .  A
C1236      C1387   1.490       .  S
C1237      C1403   1.490       .  S
N1238      N1239   1.319       .  A
N1238      N1726   1.315       .  A
N1239      C1249   1.352       .  A
N1240      N1241   1.320       .  A
N1240      N1724   1.314   1_545  A
N1241      C1250   1.353       .  A
N1242      N1722   1.314       .  A
N1242      N1243   1.320       .  A
N1242     Mn1246   2.205       .  S
N1243      C1732   1.355       .  A
N1244      N1720   1.315   1_545  A
N1244      N1245   1.320       .  A
N1244     Mn1247   2.204       .  S
N1245      C1731   1.355   1_545  A
Mn1246    Cl1730   2.544       .  S
Cl1248    Mn1728   2.544       .  S
C1249      N1727   1.355       .  A
C1249      C1339   1.483       .  S
C1250      N1725   1.355   1_545  A
C1250      C1320   1.488       .  S
N1251      C1256   1.353   1_455  A
N1251      C1255   1.354   1_455  A
N1251      H1283   1.037       .  S
N1252      C1259   1.352   1_655  A
N1252      C1260   1.352   1_655  A
N1253      C1258   1.354   1_455  A
N1253      C1257   1.353   1_455  A
N1253      H1284   1.038       .  S
N1254      C1261   1.351       .  A
N1254      C1262   1.351       .  A
C1255      C1263   1.386       .  A
C1255      C1271   1.416       .  A
C1256      C1272   1.417   1_655  A
C1256      C1264   1.388       .  A
C1257      C1265   1.387       .  A
C1257      C1274   1.415       .  A
C1258      C1273   1.415   1_655  A
C1258      C1266   1.387       .  A
C1259      C1271   1.414   1_455  A
C1259      C1267   1.386       .  A
C1260      C1274   1.414   1_455  A
C1260      C1268   1.386       .  A
C1261      C1269   1.386       .  A
C1261      C1272   1.414       .  A
C1262      C1270   1.386       .  A
C1262      C1273   1.414       .  A
C1263      C1264   1.377       .  A
C1263      H1275   1.082       .  S
C1264      H1276   1.082       .  S
C1265      C1266   1.377       .  A
C1265      H1277   1.082       .  S
C1266      H1278   1.082       .  S
C1267      C1268   1.373       .  A
C1267      H1279   1.082       .  S
C1268      H1280   1.082       .  S
C1269      C1270   1.374       .  A
C1269      H1281   1.082       .  S
C1270      H1282   1.082       .  S
C1271      C1435   1.490       .  S
C1272      C1419   1.491       .  S
C1273      C1384   1.491       .  S
C1274      C1400   1.490       .  S
N1285      C1290   1.352       .  A
N1285      C1289   1.352       .  A
N1285      H1317   1.036       .  S
N1286      C1293   1.351       .  A
N1286      C1294   1.351       .  A
N1287      C1292   1.352       .  A
N1287      C1291   1.353       .  A
N1287      H1318   1.035       .  S
N1288      C1295   1.351       .  A
N1288      C1296   1.351       .  A
C1289      C1297   1.386       .  A
C1289      C1305   1.413       .  A
C1290      C1306   1.414       .  A
C1290      C1298   1.387       .  A
C1291      C1299   1.386       .  A
C1291      C1308   1.414       .  A
C1292      C1307   1.416       .  A
C1292      C1300   1.388       .  A
C1293      C1305   1.412       .  A
C1293      C1301   1.386       .  A
C1294      C1308   1.413       .  A
C1294      C1302   1.386       .  A
C1295      C1303   1.387       .  A
C1295      C1306   1.414       .  A
C1296      C1304   1.387       .  A
C1296      C1307   1.414       .  A
C1297      C1298   1.375       .  A
C1297      H1309   1.082       .  S
C1298      H1310   1.082       .  S
C1299      C1300   1.376       .  A
C1299      H1311   1.082       .  S
C1300      H1312   1.082       .  S
C1301      C1302   1.371       .  A
C1301      H1313   1.082       .  S
C1302      H1314   1.082       .  S
C1303      C1304   1.373       .  A
C1303      H1315   1.082       .  S
C1304      H1316   1.082       .  S
C1305      C1323   1.486       .  S
C1306      C1336   1.485       .  S
C1307      C1371   1.486       .  S
C1308      C1355   1.486       .  S
C1319      C1802   1.406       .  A
C1319      C1324   1.401       .  A
C1319      H1326   1.084       .  S
C1320      C1801   1.406   1_545  A
C1320      C1321   1.421       .  A
C1321      C1322   1.405       .  A
C1321      C1328   1.507       .  S
C1322      C1805   1.400       .  A
C1322      H1327   1.084       .  S
C1323      C1804   1.400       .  A
C1323      C1324   1.412       .  A
C1324      C1325   1.508       .  S
C1325      H1329   1.110       .  S
C1325      H1812   1.111       .  S
C1325      H1331   1.108       .  S
C1328      H1332   1.109       .  S
C1328      H1815   1.110       .  S
C1328      H1334   1.111       .  S
H1330      C1807   1.111       .  S
H1333      C1810   1.110       .  S
C1335      C1336   1.401       .  A
C1335      C1340   1.405       .  A
C1335      H1342   1.084       .  S
C1336      C1819   1.409       .  A
C1337      C1818   1.409   1_545  A
C1337      C1338   1.401       .  A
C1337      C1344   1.507       .  S
C1338      C1821   1.405   1_545  A
C1338      H1343   1.084       .  S
C1339      C1820   1.405       .  A
C1339      C1340   1.420       .  A
C1340      C1341   1.509       .  S
C1341      H1345   1.111       .  S
C1341      H1346   1.111       .  S
C1341      H1347   1.109       .  S
C1344      H1348   1.110       .  S
C1344      H1349   1.109       .  S
C1344      H1350   1.111       .  S
C1351      C1352   1.409   1_545  A
C1351      C1356   1.403       .  A
C1351      H1358   1.084       .  S
C1352      C1835   1.422       .  A
C1353      C1834   1.422       .  A
C1353      C1354   1.403       .  A
C1353      C1360   1.508       .  S
C1354      C1355   1.398       .  A
C1354      H1359   1.084       .  S
C1355      C1838   1.411       .  A
C1356      C1837   1.411       .  A
C1356      C1357   1.507       .  S
C1357      H1361   1.110       .  S
C1357      H1844   1.110       .  S
C1357      H1363   1.108       .  S
C1360      H1364   1.110       .  S
C1360      H1847   1.110       .  S
C1360      H1366   1.111       .  S
H1362      C1839   1.110       .  S
H1365      C1842   1.110       .  S
C1367      C1850   1.407   1_545  A
C1367      C1372   1.400       .  A
C1367      H1374   1.084       .  S
C1368      C1849   1.407       .  A
C1368      C1369   1.419       .  A
C1369      C1370   1.405       .  A
C1369      C1376   1.507       .  S
C1370      C1371   1.401       .  A
C1370      H1375   1.084       .  S
C1371      C1854   1.411       .  A
C1372      C1853   1.411   1_545  A
C1372      C1373   1.508       .  S
C1373      H1377   1.110       .  S
C1373      H1860   1.110       .  S
C1373      H1379   1.108       .  S
C1376      H1380   1.109       .  S
C1376      H1863   1.111       .  S
C1376      H1382   1.111       .  S
H1378      C1855   1.110       .  S
H1381      C1858   1.111       .  S
C1383      C1388   1.407       .  A
C1383      H1390   1.084       .  S
C1384      C1385   1.411   1_455  A
C1385      C1386   1.404       .  A
C1385      C1392   1.507       .  S
C1386      H1391   1.084       .  S
C1387      C1388   1.420       .  A
C1388      C1389   1.507       .  S
C1389      H1393   1.111       .  S
C1389      H1394   1.109       .  S
C1389      H1395   1.111       .  S
C1392      H1396   1.109       .  S
C1392      H1397   1.110       .  S
C1392      H1398   1.111       .  S
C1399      C1404   1.406       .  A
C1399      H1406   1.084       .  S
C1400      C1401   1.410       .  A
C1401      C1402   1.403       .  A
C1401      C1408   1.507       .  S
C1402      C1403   1.407   1_655  A
C1402      H1407   1.083       .  S
C1404      C1405   1.508       .  S
C1405      H1409   1.111       .  S
C1405      H1410   1.110       .  S
C1405      H1411   1.109       .  S
C1408      H1412   1.110       .  S
C1408      H1413   1.109       .  S
C1408      H1414   1.111       .  S
C1415      C1420   1.405       .  A
C1415      H1422   1.084       .  S
C1416      C1417   1.420       .  A
C1417      C1418   1.405       .  A
C1417      C1424   1.509       .  S
C1418      H1423   1.084       .  S
C1419      C1420   1.413   1_455  A
C1420      C1421   1.507       .  S
C1421      H1425   1.111       .  S
C1421      H1426   1.110       .  S
C1421      H1427   1.109       .  S
C1424      H1428   1.110       .  S
C1424      H1429   1.109       .  S
C1424      H1430   1.111       .  S
C1431      C1436   1.404       .  A
C1431      H1438   1.084       .  S
C1432      C1433   1.422       .  A
C1433      C1434   1.407       .  A
C1433      C1440   1.507       .  S
C1434      C1435   1.400       .  A
C1434      H1439   1.084       .  S
C1436      C1437   1.506       .  S
C1437      H1441   1.111       .  S
C1437      H1442   1.110       .  S
C1437      H1443   1.110       .  S
C1440      H1444   1.109       .  S
C1440      H1445   1.110       .  S
C1440      H1446   1.111       .  S
N1447      N1448   1.319       .  A
N1447     Mn1476   2.199       .  S
N1449      N1450   1.319       .  A
N1449     Mn1465   2.202       .  S
N1451      N1452   1.322       .  A
N1451     Mn1717   2.207       .  S
N1452      C1456   1.356       .  A
N1453      N1454   1.320       .  A
N1453     Mn1706   2.208       .  S
N1454      C1455   1.354       .  A
C1455      C1609   1.487       .  S
C1456      C1593   1.492       .  S
N1457      N1458   1.318       .  A
N1457     Mn1487   2.194       .  S
N1458      C1466   1.351       .  A
N1459      N1460   1.321       .  A
N1459     Mn1706   2.205       .  S
N1460      C1467   1.355       .  A
N1461      N1462   1.321       .  A
N1461     Mn1728   2.206       .  S
N1463      N1464   1.323       .  A
N1463     Mn1465   2.217       .  S
Mn1465     N1694   2.208   1_554  S
Mn1465     N1700   2.205   1_554  S
C1466      C1657   1.486       .  S
C1467      C1673   1.493       .  S
N1468      N1469   1.321       .  A
N1468     Mn1717   2.205       .  S
N1470      N1471   1.320       .  A
N1470     Mn1488   2.199       .  S
N1472      N1473   1.321       .  A
N1472     Mn1476   2.209       .  S
N1473      C1478   1.356   1_655  A
N1474      N1475   1.321       .  A
N1474     Mn1729   2.211   1_554  S
N1475      C1477   1.355       .  A
Mn1476     N1692   2.207       .  S
Mn1476     N1709   2.205       .  S
C1477      C1628   1.490       .  S
C1478      C1644   1.490       .  S
N1479      N1480   1.319       .  A
N1479     Mn1728   2.192       .  S
N1480      C1490   1.352       .  A
N1481      N1482   1.319       .  A
N1481     Mn1729   2.196   1_554  S
N1482      C1491   1.353       .  A
N1483      N1484   1.320       .  A
N1483     Mn1487   2.205       .  S
N1485      N1486   1.320       .  A
N1485     Mn1488   2.204       .  S
Mn1487     N1702   2.206   1_554  S
Mn1487     N1720   2.192   1_554  S
Mn1488     N1715   2.211       .  S
Mn1488     N1722   2.196       .  S
Mn1488    Cl1730   2.550       .  S
Cl1489    Mn1729   2.550   1_554  S
C1490      C1580   1.483       .  S
C1491      C1561   1.488       .  S
N1492      C1497   1.353   1_455  A
N1492      C1496   1.354   1_455  A
N1492      H1524   1.037       .  S
N1493      C1500   1.352   1_655  A
N1493      C1501   1.352   1_655  A
N1494      C1499   1.354   1_455  A
N1494      C1498   1.353   1_455  A
N1494      H1525   1.038       .  S
N1495      C1502   1.351       .  A
N1495      C1503   1.351       .  A
C1496      C1504   1.386       .  A
C1496      C1512   1.416       .  A
C1497      C1513   1.417   1_655  A
C1497      C1505   1.388       .  A
C1498      C1506   1.387       .  A
C1498      C1515   1.415       .  A
C1499      C1514   1.415   1_655  A
C1499      C1507   1.387       .  A
C1500      C1512   1.414   1_455  A
C1500      C1508   1.386       .  A
C1501      C1515   1.414   1_455  A
C1501      C1509   1.386       .  A
C1502      C1510   1.386       .  A
C1502      C1513   1.414       .  A
C1503      C1511   1.386       .  A
C1503      C1514   1.414       .  A
C1504      C1505   1.377       .  A
C1504      H1516   1.082       .  S
C1505      H1517   1.082       .  S
C1506      C1507   1.377       .  A
C1506      H1518   1.082       .  S
C1507      H1519   1.082       .  S
C1508      C1509   1.373       .  A
C1508      H1520   1.082       .  S
C1509      H1521   1.082       .  S
C1510      C1511   1.374       .  A
C1510      H1522   1.082       .  S
C1511      H1523   1.082       .  S
C1512      C1676   1.490       .  S
C1513      C1660   1.491       .  S
C1514      C1625   1.491       .  S
C1515      C1641   1.490       .  S
N1526      C1531   1.352   1_565  A
N1526      C1530   1.352   1_565  A
N1526      H1558   1.036       .  S
N1527      C1534   1.351   1_545  A
N1527      C1535   1.351   1_545  A
N1528      C1533   1.352   1_565  A
N1528      C1532   1.353   1_565  A
N1528      H1559   1.035       .  S
N1529      C1536   1.351       .  A
N1529      C1537   1.351       .  A
C1530      C1538   1.386       .  A
C1530      C1546   1.413       .  A
C1531      C1547   1.414   1_545  A
C1531      C1539   1.387       .  A
C1532      C1540   1.386       .  A
C1532      C1549   1.414       .  A
C1533      C1548   1.416   1_545  A
C1533      C1541   1.388       .  A
C1534      C1546   1.412   1_565  A
C1534      C1542   1.386       .  A
C1535      C1549   1.413   1_565  A
C1535      C1543   1.386       .  A
C1536      C1544   1.387       .  A
C1536      C1547   1.414       .  A
C1537      C1545   1.387       .  A
C1537      C1548   1.414       .  A
C1538      C1539   1.375       .  A
C1538      H1550   1.082       .  S
C1539      H1551   1.082       .  S
C1540      C1541   1.376       .  A
C1540      H1552   1.082       .  S
C1541      H1553   1.082       .  S
C1542      C1543   1.371       .  A
C1542      H1554   1.082       .  S
C1543      H1555   1.082       .  S
C1544      C1545   1.373       .  A
C1544      H1556   1.082       .  S
C1545      H1557   1.082       .  S
C1546      C1564   1.486       .  S
C1547      C1577   1.485       .  S
C1548      C1612   1.486       .  S
C1549      C1596   1.486       .  S
C1560      C1565   1.401       .  A
C1560      H1567   1.084       .  S
C1561      C1562   1.421       .  A
C1562      C1563   1.405       .  A
C1562      C1569   1.507       .  S
C1563      H1568   1.084       .  S
C1564      C1565   1.412   1_545  A
C1565      C1566   1.508       .  S
C1566      H1570   1.110       .  S
C1566      H1572   1.108       .  S
C1569      H1573   1.109       .  S
C1569      H1575   1.111       .  S
C1576      C1577   1.401       .  A
C1576      C1581   1.405       .  A
C1576      H1583   1.084       .  S
C1578      C1579   1.401       .  A
C1578      C1585   1.507       .  S
C1579      H1584   1.084       .  S
C1580      C1581   1.420       .  A
C1581      C1582   1.509       .  S
C1582      H1586   1.111       .  S
C1582      H1587   1.111       .  S
C1582      H1588   1.109       .  S
C1585      H1589   1.110       .  S
C1585      H1590   1.109       .  S
C1585      H1591   1.111       .  S
C1592      C1593   1.409       .  A
C1592      C1597   1.403       .  A
C1592      H1599   1.084       .  S
C1594      C1595   1.403       .  A
C1594      C1601   1.508       .  S
C1595      C1596   1.398   1_565  A
C1595      H1600   1.084       .  S
C1597      C1598   1.507       .  S
C1598      H1602   1.110       .  S
C1598      H1604   1.108       .  S
C1601      H1605   1.110       .  S
C1601      H1607   1.111       .  S
C1608      C1613   1.400       .  A
C1608      H1615   1.084       .  S
C1609      C1610   1.419       .  A
C1610      C1611   1.405       .  A
C1610      C1617   1.507       .  S
C1611      C1612   1.401       .  A
C1611      H1616   1.084       .  S
C1613      C1614   1.508       .  S
C1614      H1618   1.110       .  S
C1614      H1620   1.108       .  S
C1617      H1621   1.109       .  S
C1617      H1623   1.111       .  S
C1624      C1629   1.407       .  A
C1624      H1631   1.084       .  S
C1625      C1626   1.411   1_455  A
C1626      C1627   1.404       .  A
C1626      C1633   1.507       .  S
C1627      H1632   1.084       .  S
C1628      C1629   1.420       .  A
C1629      C1630   1.507       .  S
C1630      H1634   1.111       .  S
C1630      H1635   1.109       .  S
C1630      H1636   1.111       .  S
C1633      H1637   1.109       .  S
C1633      H1638   1.110       .  S
C1633      H1639   1.111       .  S
C1640      C1645   1.406       .  A
C1640      H1647   1.084       .  S
C1641      C1642   1.410       .  A
C1642      C1643   1.403       .  A
C1642      C1649   1.507       .  S
C1643      C1644   1.407   1_655  A
C1643      H1648   1.083       .  S
C1645      C1646   1.508       .  S
C1646      H1650   1.111       .  S
C1646      H1651   1.110       .  S
C1646      H1652   1.109       .  S
C1649      H1653   1.110       .  S
C1649      H1654   1.109       .  S
C1649      H1655   1.111       .  S
C1656      C1661   1.405       .  A
C1656      H1663   1.084       .  S
C1657      C1658   1.420       .  A
C1658      C1659   1.405       .  A
C1658      C1665   1.509       .  S
C1659      H1664   1.084       .  S
C1660      C1661   1.413   1_455  A
C1661      C1662   1.507       .  S
C1662      H1666   1.111       .  S
C1662      H1667   1.110       .  S
C1662      H1668   1.109       .  S
C1665      H1669   1.110       .  S
C1665      H1670   1.109       .  S
C1665      H1671   1.111       .  S
C1672      C1677   1.404       .  A
C1672      H1679   1.084       .  S
C1673      C1674   1.422       .  A
C1674      C1675   1.407       .  A
C1674      C1681   1.507       .  S
C1675      C1676   1.400       .  A
C1675      H1680   1.084       .  S
C1677      C1678   1.506       .  S
C1678      H1682   1.111       .  S
C1678      H1683   1.110       .  S
C1678      H1684   1.110       .  S
C1681      H1685   1.109       .  S
C1681      H1686   1.110       .  S
C1681      H1687   1.111       .  S
N1688      N1689   1.319       .  A
N1688     Mn1717   2.199   1_556  S
N1690      N1691   1.319       .  A
N1690     Mn1706   2.202       .  S
N1692      N1693   1.322       .  A
N1693      C1697   1.356       .  A
N1694      N1695   1.320       .  A
N1695      C1696   1.354       .  A
C1696      C1850   1.487       .  S
C1697      C1834   1.492       .  S
N1698      N1699   1.318       .  A
N1698     Mn1728   2.194       .  S
N1699      C1707   1.351       .  A
N1700      N1701   1.321       .  A
N1701      C1708   1.355       .  A
N1702      N1703   1.321       .  A
N1704      N1705   1.323       .  A
N1704     Mn1706   2.217       .  S
C1707      C1898   1.486       .  S
C1708      C1914   1.493       .  S
N1709      N1710   1.321       .  A
N1711      N1712   1.320       .  A
N1711     Mn1729   2.199       .  S
N1713      N1714   1.321       .  A
N1713     Mn1717   2.209   1_556  S
N1714      C1719   1.356   1_655  A
N1715      N1716   1.321       .  A
N1716      C1718   1.355       .  A
C1718      C1869   1.490       .  S
C1719      C1885   1.490       .  S
N1720      N1721   1.319       .  A
N1721      C1731   1.352       .  A
N1722      N1723   1.320       .  A
N1723      C1732   1.353       .  A
N1724      N1725   1.320       .  A
N1724     Mn1728   2.205       .  S
N1726      N1727   1.320       .  A
N1726     Mn1729   2.204       .  S
C1731      C1821   1.483       .  S
C1732      C1802   1.488       .  S
N1733      C1738   1.353   1_455  A
N1733      C1737   1.354   1_455  A
N1733      H1765   1.037       .  S
N1734      C1741   1.352   1_655  A
N1734      C1742   1.352   1_655  A
N1735      C1740   1.354   1_455  A
N1735      C1739   1.353   1_455  A
N1735      H1766   1.038       .  S
N1736      C1743   1.351       .  A
N1736      C1744   1.351       .  A
C1737      C1745   1.386       .  A
C1737      C1753   1.416       .  A
C1738      C1754   1.417   1_655  A
C1738      C1746   1.388       .  A
C1739      C1747   1.387       .  A
C1739      C1756   1.415       .  A
C1740      C1755   1.415   1_655  A
C1740      C1748   1.387       .  A
C1741      C1753   1.414   1_455  A
C1741      C1749   1.386       .  A
C1742      C1756   1.414   1_455  A
C1742      C1750   1.386       .  A
C1743      C1751   1.386       .  A
C1743      C1754   1.414       .  A
C1744      C1752   1.386       .  A
C1744      C1755   1.414       .  A
C1745      C1746   1.377       .  A
C1745      H1757   1.082       .  S
C1746      H1758   1.082       .  S
C1747      C1748   1.377       .  A
C1747      H1759   1.082       .  S
C1748      H1760   1.082       .  S
C1749      C1750   1.373       .  A
C1749      H1761   1.082       .  S
C1750      H1762   1.082       .  S
C1751      C1752   1.374       .  A
C1751      H1763   1.082       .  S
C1752      H1764   1.082       .  S
C1753      C1917   1.490       .  S
C1754      C1901   1.491       .  S
C1755      C1866   1.491       .  S
C1756      C1882   1.490       .  S
N1767      C1772   1.352   1_565  A
N1767      C1771   1.352   1_565  A
N1767      H1799   1.036       .  S
N1768      C1775   1.351   1_545  A
N1768      C1776   1.351   1_545  A
N1769      C1774   1.352   1_565  A
N1769      C1773   1.353   1_565  A
N1769      H1800   1.035       .  S
N1770      C1777   1.351       .  A
N1770      C1778   1.351       .  A
C1771      C1779   1.386       .  A
C1771      C1787   1.413       .  A
C1772      C1788   1.414   1_545  A
C1772      C1780   1.387       .  A
C1773      C1781   1.386       .  A
C1773      C1790   1.414       .  A
C1774      C1789   1.416   1_545  A
C1774      C1782   1.388       .  A
C1775      C1787   1.412   1_565  A
C1775      C1783   1.386       .  A
C1776      C1790   1.413   1_565  A
C1776      C1784   1.386       .  A
C1777      C1785   1.387       .  A
C1777      C1788   1.414       .  A
C1778      C1786   1.387       .  A
C1778      C1789   1.414       .  A
C1779      C1780   1.375       .  A
C1779      H1791   1.082       .  S
C1780      H1792   1.082       .  S
C1781      C1782   1.376       .  A
C1781      H1793   1.082       .  S
C1782      H1794   1.082       .  S
C1783      C1784   1.371       .  A
C1783      H1795   1.082       .  S
C1784      H1796   1.082       .  S
C1785      C1786   1.373       .  A
C1785      H1797   1.082       .  S
C1786      H1798   1.082       .  S
C1787      C1805   1.486       .  S
C1788      C1818   1.485       .  S
C1789      C1853   1.486       .  S
C1790      C1837   1.486       .  S
C1801      C1806   1.401       .  A
C1801      H1808   1.084       .  S
C1802      C1803   1.421       .  A
C1803      C1804   1.405       .  A
C1803      C1810   1.507       .  S
C1804      H1809   1.084       .  S
C1805      C1806   1.412   1_545  A
C1806      C1807   1.508       .  S
C1807      H1811   1.110       .  S
C1807      H1813   1.108       .  S
C1810      H1814   1.109       .  S
C1810      H1816   1.111       .  S
C1817      C1818   1.401       .  A
C1817      C1822   1.405       .  A
C1817      H1824   1.084       .  S
C1819      C1820   1.401       .  A
C1819      C1826   1.507       .  S
C1820      H1825   1.084       .  S
C1821      C1822   1.420       .  A
C1822      C1823   1.509       .  S
C1823      H1827   1.111       .  S
C1823      H1828   1.111       .  S
C1823      H1829   1.109       .  S
C1826      H1830   1.110       .  S
C1826      H1831   1.109       .  S
C1826      H1832   1.111       .  S
C1833      C1834   1.409       .  A
C1833      C1838   1.403       .  A
C1833      H1840   1.084       .  S
C1835      C1836   1.403       .  A
C1835      C1842   1.508       .  S
C1836      C1837   1.398   1_565  A
C1836      H1841   1.084       .  S
C1838      C1839   1.507       .  S
C1839      H1843   1.110       .  S
C1839      H1845   1.108       .  S
C1842      H1846   1.110       .  S
C1842      H1848   1.111       .  S
C1849      C1854   1.400       .  A
C1849      H1856   1.084       .  S
C1850      C1851   1.419       .  A
C1851      C1852   1.405       .  A
C1851      C1858   1.507       .  S
C1852      C1853   1.401       .  A
C1852      H1857   1.084       .  S
C1854      C1855   1.508       .  S
C1855      H1859   1.110       .  S
C1855      H1861   1.108       .  S
C1858      H1862   1.109       .  S
C1858      H1864   1.111       .  S
C1865      C1870   1.407       .  A
C1865      H1872   1.084       .  S
C1866      C1867   1.411   1_455  A
C1867      C1868   1.404       .  A
C1867      C1874   1.507       .  S
C1868      H1873   1.084       .  S
C1869      C1870   1.420       .  A
C1870      C1871   1.507       .  S
C1871      H1875   1.111       .  S
C1871      H1876   1.109       .  S
C1871      H1877   1.111       .  S
C1874      H1878   1.109       .  S
C1874      H1879   1.110       .  S
C1874      H1880   1.111       .  S
C1881      C1886   1.406       .  A
C1881      H1888   1.084       .  S
C1882      C1883   1.410       .  A
C1883      C1884   1.403       .  A
C1883      C1890   1.507       .  S
C1884      C1885   1.407   1_655  A
C1884      H1889   1.083       .  S
C1886      C1887   1.508       .  S
C1887      H1891   1.111       .  S
C1887      H1892   1.110       .  S
C1887      H1893   1.109       .  S
C1890      H1894   1.110       .  S
C1890      H1895   1.109       .  S
C1890      H1896   1.111       .  S
C1897      C1902   1.405       .  A
C1897      H1904   1.084       .  S
C1898      C1899   1.420       .  A
C1899      C1900   1.405       .  A
C1899      C1906   1.509       .  S
C1900      H1905   1.084       .  S
C1901      C1902   1.413   1_455  A
C1902      C1903   1.507       .  S
C1903      H1907   1.111       .  S
C1903      H1908   1.110       .  S
C1903      H1909   1.109       .  S
C1906      H1910   1.110       .  S
C1906      H1911   1.109       .  S
C1906      H1912   1.111       .  S
C1913      C1918   1.404       .  A
C1913      H1920   1.084       .  S
C1914      C1915   1.422       .  A
C1915      C1916   1.407       .  A
C1915      C1922   1.507       .  S
C1916      C1917   1.400       .  A
C1916      H1921   1.084       .  S
C1918      C1919   1.506       .  S
C1919      H1923   1.111       .  S
C1919      H1924   1.110       .  S
C1919      H1925   1.110       .  S
C1922      H1926   1.109       .  S
C1922      H1927   1.110       .  S
C1922      H1928   1.111       .  S
